
Spectre (R) Circuit Simulator
Version 21.1.0.303.isr5 64bit -- 2 Mar 2022
Copyright (C) 1989-2021 Cadence Design Systems, Inc. All rights reserved worldwide. Cadence and Spectre are registered trademarks of Cadence Design Systems, Inc. All others are the property of their respective holders.

Includes RSA BSAFE(R) Cryptographic or Security Protocol Software from RSA Security, Inc.

User: master   Host: icpc   HostID: 966ACEFF   PID: 116002
Memory  available: 7.6483 GB  physical: 12.0741 GB
Linux   : CentOS Linux release 7.9.2009 (Core)
CPU Type: AMD Ryzen 7 5800H with Radeon Graphics
All processors running at 3193.9 MHz
        Socket: Processors
        0:       0
        
System load averages (1min, 5min, 15min) : 161.0 %, 176.0 %, 181.0 %
This is a virtual machine


Simulating `techsweep.scs' on icpc at 6:00:10 PM, Sat Mar 2, 2024 (process id: 116002).
Current working directory: /mnt/hgfs/share/gmoverid/starter_kit
Environment variable:
    SPECTRE_DEFAULTS=-E
Command line:
    /export/SoftWare/Cadence/SPECTRE21.10.303/tools.lnx86/bin/spectre  \
        -64 techsweep.scs

Licensing Information:
[18:00:10.184657] Configured Lic search path (20.02-s004): /export/SoftWare/Cadence/license/license.dat

Licensing Information:
[18:00:10.065962] Periodic Lic check successful

Loading /export/SoftWare/Cadence/SPECTRE21.10.303/tools.lnx86/cmi/lib/64bit/5.0/libinfineon_sh.so ...
Loading /export/SoftWare/Cadence/SPECTRE21.10.303/tools.lnx86/cmi/lib/64bit/5.0/libphilips_o_sh.so ...
Loading /export/SoftWare/Cadence/SPECTRE21.10.303/tools.lnx86/cmi/lib/64bit/5.0/libphilips_sh.so ...
Loading /export/SoftWare/Cadence/SPECTRE21.10.303/tools.lnx86/cmi/lib/64bit/5.0/libsparam_sh.so ...
Loading /export/SoftWare/Cadence/SPECTRE21.10.303/tools.lnx86/cmi/lib/64bit/5.0/libstmodels_sh.so ...
Reading file:  /mnt/hgfs/share/gmoverid/starter_kit/techsweep.scs
Reading file:  /export/SoftWare/Cadence/SPECTRE21.10.303/tools.lnx86/spectre/etc/configs/spectre.cfg
Reading file:  /usr/include/stdc-predef.h
Reading file:  /home/techlib/tsmc180/PDK/PDK_Install/models/spectre/ce018g_3d3_v1d0_usage.scs
Reading file:  /home/techlib/tsmc180/PDK/PDK_Install/models/spectre/ce018g_3d3_v1d0.scs
Reading file:  /mnt/hgfs/share/gmoverid/starter_kit/techsweep_params.scs
Time for NDB Parsing: CPU = 478.887 ms, elapsed = 557.386 ms.
Time accumulated: CPU = 568.353 ms, elapsed = 557.391 ms.
Peak resident memory used = 82.8 Mbytes.

Time for Elaboration: CPU = 28.989 ms, elapsed = 29.7492 ms.
Time accumulated: CPU = 597.533 ms, elapsed = 588.067 ms.
Peak resident memory used = 89.9 Mbytes.


Time for EDB Visiting: CPU = 559 us, elapsed = 729.084 us.
Time accumulated: CPU = 598.303 ms, elapsed = 589.803 ms.
Peak resident memory used = 90.7 Mbytes.


Global user options:
               gmin = 1e-13
            vabstol = 1e-06
            iabstol = 1e-10
               temp = 27
             rawfmt = psfbin
            rawfile = ./techsweep.raw
             reltol = 0.0001
               tnom = 27

Scoped user options:

Circuit inventory:
              nodes 7
              bsim4 2     
            vsource 7     

Analysis and control statement inventory:
                 dc 1     
              noise 1     
              sweep 2     

Output statements:
             .probe 0     
           .measure 0     
               save 2     

Time for parsing: CPU = 2.383 ms, elapsed = 7.07889 ms.
Time accumulated: CPU = 600.829 ms, elapsed = 597.607 ms.
Peak resident memory used = 92.3 Mbytes.

~~~~~~~~~~~~~~~~~~~~~~
Pre-Simulation Summary
~~~~~~~~~~~~~~~~~~~~~~
~~~~~~~~~~~~~~~~~~~~~~

**********************************************
Sweep Analysis `sweepvds': ds = (0 -> 900e-03)
**********************************************

Opening the PSF file ./techsweep.raw/sweepvds_sweepvgs.sweep ...

++++++++++++++++++++++
sweepvds: ds = 0 (0 %)
++++++++++++++++++++++
Time for sweepvds itNum=0: CPU = 1.26 ms, elapsed = 4.32515 ms.
Time accumulated: CPU = 602.225 ms, elapsed = 602.627 ms.
Peak resident memory used = 92.9 Mbytes.


********************************************************
DC Analysis `sweepvds-000_sweepvgs': gs = (0 -> 900e-03)
********************************************************

Notice from spectre at ds = 0 during DC analysis `sweepvds-000_sweepvgs', during Sweep analysis `sweepvds'.
    No outputs were found. Loosening output filter criterion to `allpub'.


Opening the PSF file ./techsweep.raw/sweepvds-000_sweepvgs.dc ...
Important parameter values:
    reltol = 100e-06
    abstol(V) = 1 uV
    abstol(I) = 100 pA
    temp = 27 C
    tnom = 27 C
    tempeffects = all
    gmindc = 100 fS
...........9...........8...........7...........6...........5...........4...........3...........2...........1...........0

Maximum value achieved for any signal of each quantity: 
V: V(vgp) = 900 mV
I: I(mn:4) = 491 fA
DC simulation time: CPU = 24.12 ms, elapsed = 56.731 ms.

Notice from spectre at gs = 900e-03 during DC analysis `sweepvds-000_sweepvgs', during Sweep analysis `sweepvds'.
    The value of parameter 'gs' has been reset to the original value 0.

Total time required for dc analysis `sweepvds-000_sweepvgs': CPU = 24.186 ms, elapsed = 56.937 ms.
Time accumulated: CPU = 648.585 ms, elapsed = 689.672 ms.
Peak resident memory used = 94.7 Mbytes.


+++++++++++++++++++++++++++++++++
sweepvds: ds = 25e-03 (2.77778 %)
+++++++++++++++++++++++++++++++++
Time for sweepvds itNum=1: CPU = 201 us, elapsed = 422.955 us.
Time accumulated: CPU = 648.904 ms, elapsed = 690.631 ms.
Peak resident memory used = 94.7 Mbytes.


********************************************************
DC Analysis `sweepvds-001_sweepvgs': gs = (0 -> 900e-03)
********************************************************

Notice from spectre during DC analysis `sweepvds-001_sweepvgs', during Sweep analysis `sweepvds'.
    No outputs were found. Loosening output filter criterion to `allpub'.


Opening the PSF file ./techsweep.raw/sweepvds-001_sweepvgs.dc ...
Important parameter values:
    reltol = 100e-06
    abstol(V) = 1 uV
    abstol(I) = 100 pA
    temp = 27 C
    tnom = 27 C
    tempeffects = all
    gmindc = 100 fS
...........9...........8...........7...........6...........5...........4...........3...........2...........1...........0

Maximum value achieved for any signal of each quantity: 
V: V(vgp) = 900 mV
I: I(mn:1) = 7.349 uA
DC simulation time: CPU = 23.764 ms, elapsed = 56.3791 ms.

Notice from spectre at gs = 900e-03 during DC analysis `sweepvds-001_sweepvgs', during Sweep analysis `sweepvds'.
    The value of parameter 'gs' has been reset to the original value 0.

Total time required for dc analysis `sweepvds-001_sweepvgs': CPU = 23.83 ms, elapsed = 56.5982 ms.
Time accumulated: CPU = 673.323 ms, elapsed = 749.599 ms.
Peak resident memory used = 94.7 Mbytes.


+++++++++++++++++++++++++++++++++
sweepvds: ds = 50e-03 (5.55556 %)
+++++++++++++++++++++++++++++++++
Time for sweepvds itNum=2: CPU = 138 us, elapsed = 276.804 us.
Time accumulated: CPU = 673.572 ms, elapsed = 750.523 ms.
Peak resident memory used = 94.7 Mbytes.


********************************************************
DC Analysis `sweepvds-002_sweepvgs': gs = (0 -> 900e-03)
********************************************************

Notice from spectre during DC analysis `sweepvds-002_sweepvgs', during Sweep analysis `sweepvds'.
    No outputs were found. Loosening output filter criterion to `allpub'.


Opening the PSF file ./techsweep.raw/sweepvds-002_sweepvgs.dc ...
Important parameter values:
    reltol = 100e-06
    abstol(V) = 1 uV
    abstol(I) = 100 pA
    temp = 27 C
    tnom = 27 C
    tempeffects = all
    gmindc = 100 fS
...........9...........8...........7...........6...........5...........4...........3...........2...........1...........0

Maximum value achieved for any signal of each quantity: 
V: V(vgp) = 900 mV
I: I(mn:1) = 13.81 uA
DC simulation time: CPU = 35.298 ms, elapsed = 73.2541 ms.

Notice from spectre at gs = 900e-03 during DC analysis `sweepvds-002_sweepvgs', during Sweep analysis `sweepvds'.
    The value of parameter 'gs' has been reset to the original value 0.

Total time required for dc analysis `sweepvds-002_sweepvgs': CPU = 35.362 ms, elapsed = 73.5841 ms.
Time accumulated: CPU = 709.696 ms, elapsed = 826.737 ms.
Peak resident memory used = 94.7 Mbytes.


+++++++++++++++++++++++++++++++++
sweepvds: ds = 75e-03 (8.33333 %)
+++++++++++++++++++++++++++++++++
Time for sweepvds itNum=3: CPU = 163 us, elapsed = 304.937 us.
Time accumulated: CPU = 709.972 ms, elapsed = 827.578 ms.
Peak resident memory used = 94.7 Mbytes.


********************************************************
DC Analysis `sweepvds-003_sweepvgs': gs = (0 -> 900e-03)
********************************************************

Notice from spectre during DC analysis `sweepvds-003_sweepvgs', during Sweep analysis `sweepvds'.
    No outputs were found. Loosening output filter criterion to `allpub'.


Opening the PSF file ./techsweep.raw/sweepvds-003_sweepvgs.dc ...
Important parameter values:
    reltol = 100e-06
    abstol(V) = 1 uV
    abstol(I) = 100 pA
    temp = 27 C
    tnom = 27 C
    tempeffects = all
    gmindc = 100 fS
...........9...........8...........7...........6...........5...........4...........3...........2...........1...........0

Maximum value achieved for any signal of each quantity: 
V: V(vgp) = 900 mV
I: I(mn:1) = 19.38 uA
DC simulation time: CPU = 24.314 ms, elapsed = 58.5589 ms.

Notice from spectre at gs = 900e-03 during DC analysis `sweepvds-003_sweepvgs', during Sweep analysis `sweepvds'.
    The value of parameter 'gs' has been reset to the original value 0.

Total time required for dc analysis `sweepvds-003_sweepvgs': CPU = 24.376 ms, elapsed = 58.7611 ms.
Time accumulated: CPU = 734.923 ms, elapsed = 889.227 ms.
Peak resident memory used = 94.7 Mbytes.


++++++++++++++++++++++++++++++++++
sweepvds: ds = 100e-03 (11.1111 %)
++++++++++++++++++++++++++++++++++
Time for sweepvds itNum=4: CPU = 137 us, elapsed = 273.943 us.
Time accumulated: CPU = 735.169 ms, elapsed = 890.028 ms.
Peak resident memory used = 94.7 Mbytes.


********************************************************
DC Analysis `sweepvds-004_sweepvgs': gs = (0 -> 900e-03)
********************************************************

Notice from spectre during DC analysis `sweepvds-004_sweepvgs', during Sweep analysis `sweepvds'.
    No outputs were found. Loosening output filter criterion to `allpub'.


Opening the PSF file ./techsweep.raw/sweepvds-004_sweepvgs.dc ...
Important parameter values:
    reltol = 100e-06
    abstol(V) = 1 uV
    abstol(I) = 100 pA
    temp = 27 C
    tnom = 27 C
    tempeffects = all
    gmindc = 100 fS
...........9...........8...........7...........6...........5...........4...........3...........2...........1...........0

Maximum value achieved for any signal of each quantity: 
V: V(vgp) = 900 mV
I: I(mn:1) = 24.1 uA
DC simulation time: CPU = 24.604 ms, elapsed = 73.7021 ms.

Notice from spectre at gs = 900e-03 during DC analysis `sweepvds-004_sweepvgs', during Sweep analysis `sweepvds'.
    The value of parameter 'gs' has been reset to the original value 0.

Total time required for dc analysis `sweepvds-004_sweepvgs': CPU = 24.658 ms, elapsed = 73.899 ms.
Time accumulated: CPU = 760.42 ms, elapsed = 966.769 ms.
Peak resident memory used = 94.7 Mbytes.


++++++++++++++++++++++++++++++++++
sweepvds: ds = 125e-03 (13.8889 %)
++++++++++++++++++++++++++++++++++
Time for sweepvds itNum=5: CPU = 136 us, elapsed = 274.181 us.
Time accumulated: CPU = 760.664 ms, elapsed = 967.565 ms.
Peak resident memory used = 94.7 Mbytes.


********************************************************
DC Analysis `sweepvds-005_sweepvgs': gs = (0 -> 900e-03)
********************************************************

Notice from spectre during DC analysis `sweepvds-005_sweepvgs', during Sweep analysis `sweepvds'.
    No outputs were found. Loosening output filter criterion to `allpub'.


Opening the PSF file ./techsweep.raw/sweepvds-005_sweepvgs.dc ...
Important parameter values:
    reltol = 100e-06
    abstol(V) = 1 uV
    abstol(I) = 100 pA
    temp = 27 C
    tnom = 27 C
    tempeffects = all
    gmindc = 100 fS
...........9...........8...........7...........6...........5...........4...........3...........2...........1...........0

Maximum value achieved for any signal of each quantity: 
V: V(vgp) = 900 mV
I: I(mn:1) = 27.98 uA
DC simulation time: CPU = 23.936 ms, elapsed = 74.373 ms.

Notice from spectre at gs = 900e-03 during DC analysis `sweepvds-005_sweepvgs', during Sweep analysis `sweepvds'.
    The value of parameter 'gs' has been reset to the original value 0.

Total time required for dc analysis `sweepvds-005_sweepvgs': CPU = 23.988 ms, elapsed = 74.5649 ms.
Time accumulated: CPU = 785.235 ms, elapsed = 1.04461 s.
Peak resident memory used = 94.7 Mbytes.


++++++++++++++++++++++++++++++++++
sweepvds: ds = 150e-03 (16.6667 %)
++++++++++++++++++++++++++++++++++
Time for sweepvds itNum=6: CPU = 139 us, elapsed = 277.996 us.
Time accumulated: CPU = 785.498 ms, elapsed = 1.04547 s.
Peak resident memory used = 94.7 Mbytes.


********************************************************
DC Analysis `sweepvds-006_sweepvgs': gs = (0 -> 900e-03)
********************************************************

Notice from spectre during DC analysis `sweepvds-006_sweepvgs', during Sweep analysis `sweepvds'.
    No outputs were found. Loosening output filter criterion to `allpub'.


Opening the PSF file ./techsweep.raw/sweepvds-006_sweepvgs.dc ...
Important parameter values:
    reltol = 100e-06
    abstol(V) = 1 uV
    abstol(I) = 100 pA
    temp = 27 C
    tnom = 27 C
    tempeffects = all
    gmindc = 100 fS
...........9...........8...........7...........6...........5...........4...........3...........2...........1...........0

Maximum value achieved for any signal of each quantity: 
V: V(vgp) = 900 mV
I: I(mn:1) = 31.04 uA
DC simulation time: CPU = 35.877 ms, elapsed = 70.832 ms.

Notice from spectre at gs = 900e-03 during DC analysis `sweepvds-006_sweepvgs', during Sweep analysis `sweepvds'.
    The value of parameter 'gs' has been reset to the original value 0.

Total time required for dc analysis `sweepvds-006_sweepvgs': CPU = 35.929 ms, elapsed = 71.0239 ms.
Time accumulated: CPU = 822.011 ms, elapsed = 1.11912 s.
Peak resident memory used = 94.7 Mbytes.


++++++++++++++++++++++++++++++++++
sweepvds: ds = 175e-03 (19.4444 %)
++++++++++++++++++++++++++++++++++
Time for sweepvds itNum=7: CPU = 153 us, elapsed = 292.063 us.
Time accumulated: CPU = 822.294 ms, elapsed = 1.11999 s.
Peak resident memory used = 94.7 Mbytes.


********************************************************
DC Analysis `sweepvds-007_sweepvgs': gs = (0 -> 900e-03)
********************************************************

Notice from spectre during DC analysis `sweepvds-007_sweepvgs', during Sweep analysis `sweepvds'.
    No outputs were found. Loosening output filter criterion to `allpub'.


Opening the PSF file ./techsweep.raw/sweepvds-007_sweepvgs.dc ...
Important parameter values:
    reltol = 100e-06
    abstol(V) = 1 uV
    abstol(I) = 100 pA
    temp = 27 C
    tnom = 27 C
    tempeffects = all
    gmindc = 100 fS
...........9...........8...........7...........6...........5...........4...........3...........2...........1...........0

Maximum value achieved for any signal of each quantity: 
V: V(vgp) = 900 mV
I: I(mn:1) = 33.31 uA
DC simulation time: CPU = 23.366 ms, elapsed = 57.8179 ms.

Notice from spectre at gs = 900e-03 during DC analysis `sweepvds-007_sweepvgs', during Sweep analysis `sweepvds'.
    The value of parameter 'gs' has been reset to the original value 0.

Total time required for dc analysis `sweepvds-007_sweepvgs': CPU = 23.422 ms, elapsed = 58.182 ms.
Time accumulated: CPU = 846.288 ms, elapsed = 1.18053 s.
Peak resident memory used = 94.7 Mbytes.


++++++++++++++++++++++++++++++++++
sweepvds: ds = 200e-03 (22.2222 %)
++++++++++++++++++++++++++++++++++
Time for sweepvds itNum=8: CPU = 138 us, elapsed = 277.042 us.
Time accumulated: CPU = 846.537 ms, elapsed = 1.18134 s.
Peak resident memory used = 94.7 Mbytes.


********************************************************
DC Analysis `sweepvds-008_sweepvgs': gs = (0 -> 900e-03)
********************************************************

Notice from spectre during DC analysis `sweepvds-008_sweepvgs', during Sweep analysis `sweepvds'.
    No outputs were found. Loosening output filter criterion to `allpub'.


Opening the PSF file ./techsweep.raw/sweepvds-008_sweepvgs.dc ...
Important parameter values:
    reltol = 100e-06
    abstol(V) = 1 uV
    abstol(I) = 100 pA
    temp = 27 C
    tnom = 27 C
    tempeffects = all
    gmindc = 100 fS
...........9...........8...........7...........6...........5...........4...........3...........2...........1...........0

Maximum value achieved for any signal of each quantity: 
V: V(vgp) = 900 mV
I: I(mn:1) = 34.86 uA
DC simulation time: CPU = 24.75 ms, elapsed = 57.461 ms.

Notice from spectre at gs = 900e-03 during DC analysis `sweepvds-008_sweepvgs', during Sweep analysis `sweepvds'.
    The value of parameter 'gs' has been reset to the original value 0.

Total time required for dc analysis `sweepvds-008_sweepvgs': CPU = 24.814 ms, elapsed = 57.667 ms.
Time accumulated: CPU = 871.924 ms, elapsed = 1.24202 s.
Peak resident memory used = 94.7 Mbytes.


+++++++++++++++++++++++++++++
sweepvds: ds = 225e-03 (25 %)
+++++++++++++++++++++++++++++
Time for sweepvds itNum=9: CPU = 137 us, elapsed = 278.95 us.
Time accumulated: CPU = 872.172 ms, elapsed = 1.24282 s.
Peak resident memory used = 94.7 Mbytes.


********************************************************
DC Analysis `sweepvds-009_sweepvgs': gs = (0 -> 900e-03)
********************************************************

Notice from spectre during DC analysis `sweepvds-009_sweepvgs', during Sweep analysis `sweepvds'.
    No outputs were found. Loosening output filter criterion to `allpub'.


Opening the PSF file ./techsweep.raw/sweepvds-009_sweepvgs.dc ...
Important parameter values:
    reltol = 100e-06
    abstol(V) = 1 uV
    abstol(I) = 100 pA
    temp = 27 C
    tnom = 27 C
    tempeffects = all
    gmindc = 100 fS
...........9...........8...........7...........6...........5...........4...........3...........2...........1...........0

Maximum value achieved for any signal of each quantity: 
V: V(vgp) = 900 mV
I: I(mn:1) = 35.83 uA
DC simulation time: CPU = 25.063 ms, elapsed = 62.3438 ms.

Notice from spectre at gs = 900e-03 during DC analysis `sweepvds-009_sweepvgs', during Sweep analysis `sweepvds'.
    The value of parameter 'gs' has been reset to the original value 0.

Total time required for dc analysis `sweepvds-009_sweepvgs': CPU = 25.117 ms, elapsed = 62.5391 ms.
Time accumulated: CPU = 897.872 ms, elapsed = 1.30788 s.
Peak resident memory used = 94.7 Mbytes.


++++++++++++++++++++++++++++++++++
sweepvds: ds = 250e-03 (27.7778 %)
++++++++++++++++++++++++++++++++++
Time for sweepvds itNum=10: CPU = 145 us, elapsed = 287.056 us.
Time accumulated: CPU = 898.128 ms, elapsed = 1.30873 s.
Peak resident memory used = 94.7 Mbytes.


********************************************************
DC Analysis `sweepvds-010_sweepvgs': gs = (0 -> 900e-03)
********************************************************

Notice from spectre during DC analysis `sweepvds-010_sweepvgs', during Sweep analysis `sweepvds'.
    No outputs were found. Loosening output filter criterion to `allpub'.


Opening the PSF file ./techsweep.raw/sweepvds-010_sweepvgs.dc ...
Important parameter values:
    reltol = 100e-06
    abstol(V) = 1 uV
    abstol(I) = 100 pA
    temp = 27 C
    tnom = 27 C
    tempeffects = all
    gmindc = 100 fS
...........9...........8...........7...........6...........5...........4...........3...........2...........1...........0

Maximum value achieved for any signal of each quantity: 
V: V(vgp) = 900 mV
I: I(mn:1) = 36.4 uA
DC simulation time: CPU = 23.649 ms, elapsed = 56.4349 ms.

Notice from spectre at gs = 900e-03 during DC analysis `sweepvds-010_sweepvgs', during Sweep analysis `sweepvds'.
    The value of parameter 'gs' has been reset to the original value 0.

Total time required for dc analysis `sweepvds-010_sweepvgs': CPU = 23.703 ms, elapsed = 56.6289 ms.
Time accumulated: CPU = 922.431 ms, elapsed = 1.36805 s.
Peak resident memory used = 94.7 Mbytes.


++++++++++++++++++++++++++++++++++
sweepvds: ds = 275e-03 (30.5556 %)
++++++++++++++++++++++++++++++++++
Time for sweepvds itNum=11: CPU = 202 us, elapsed = 374.079 us.
Time accumulated: CPU = 922.744 ms, elapsed = 1.36895 s.
Peak resident memory used = 94.7 Mbytes.


********************************************************
DC Analysis `sweepvds-011_sweepvgs': gs = (0 -> 900e-03)
********************************************************

Notice from spectre during DC analysis `sweepvds-011_sweepvgs', during Sweep analysis `sweepvds'.
    No outputs were found. Loosening output filter criterion to `allpub'.


Opening the PSF file ./techsweep.raw/sweepvds-011_sweepvgs.dc ...
Important parameter values:
    reltol = 100e-06
    abstol(V) = 1 uV
    abstol(I) = 100 pA
    temp = 27 C
    tnom = 27 C
    tempeffects = all
    gmindc = 100 fS
...........9...........8...........7...........6...........5...........4...........3...........2...........1...........0

Maximum value achieved for any signal of each quantity: 
V: V(vgp) = 900 mV
I: I(mn:1) = 36.76 uA
DC simulation time: CPU = 38.458 ms, elapsed = 73.5128 ms.

Notice from spectre at gs = 900e-03 during DC analysis `sweepvds-011_sweepvgs', during Sweep analysis `sweepvds'.
    The value of parameter 'gs' has been reset to the original value 0.

Total time required for dc analysis `sweepvds-011_sweepvgs': CPU = 38.517 ms, elapsed = 73.7121 ms.
Time accumulated: CPU = 961.892 ms, elapsed = 1.44516 s.
Peak resident memory used = 94.8 Mbytes.


++++++++++++++++++++++++++++++++++
sweepvds: ds = 300e-03 (33.3333 %)
++++++++++++++++++++++++++++++++++
Time for sweepvds itNum=12: CPU = 179 us, elapsed = 319.958 us.
Time accumulated: CPU = 962.316 ms, elapsed = 1.44617 s.
Peak resident memory used = 94.8 Mbytes.


********************************************************
DC Analysis `sweepvds-012_sweepvgs': gs = (0 -> 900e-03)
********************************************************

Notice from spectre during DC analysis `sweepvds-012_sweepvgs', during Sweep analysis `sweepvds'.
    No outputs were found. Loosening output filter criterion to `allpub'.


Opening the PSF file ./techsweep.raw/sweepvds-012_sweepvgs.dc ...
Important parameter values:
    reltol = 100e-06
    abstol(V) = 1 uV
    abstol(I) = 100 pA
    temp = 27 C
    tnom = 27 C
    tempeffects = all
    gmindc = 100 fS
...........9...........8...........7...........6...........5...........4...........3...........2...........1...........0

Maximum value achieved for any signal of each quantity: 
V: V(vgp) = 900 mV
I: I(mn:1) = 37.01 uA
DC simulation time: CPU = 25.653 ms, elapsed = 59.84 ms.

Notice from spectre at gs = 900e-03 during DC analysis `sweepvds-012_sweepvgs', during Sweep analysis `sweepvds'.
    The value of parameter 'gs' has been reset to the original value 0.

Total time required for dc analysis `sweepvds-012_sweepvgs': CPU = 25.71 ms, elapsed = 60.0369 ms.
Time accumulated: CPU = 988.639 ms, elapsed = 1.50882 s.
Peak resident memory used = 94.8 Mbytes.


++++++++++++++++++++++++++++++++++
sweepvds: ds = 325e-03 (36.1111 %)
++++++++++++++++++++++++++++++++++
Time for sweepvds itNum=13: CPU = 152 us, elapsed = 292.063 us.
Time accumulated: CPU = 988.907 ms, elapsed = 1.50965 s.
Peak resident memory used = 94.8 Mbytes.


********************************************************
DC Analysis `sweepvds-013_sweepvgs': gs = (0 -> 900e-03)
********************************************************

Notice from spectre during DC analysis `sweepvds-013_sweepvgs', during Sweep analysis `sweepvds'.
    No outputs were found. Loosening output filter criterion to `allpub'.


Opening the PSF file ./techsweep.raw/sweepvds-013_sweepvgs.dc ...
Important parameter values:
    reltol = 100e-06
    abstol(V) = 1 uV
    abstol(I) = 100 pA
    temp = 27 C
    tnom = 27 C
    tempeffects = all
    gmindc = 100 fS
...........9...........8...........7...........6...........5...........4...........3...........2...........1...........0

Maximum value achieved for any signal of each quantity: 
V: V(vgp) = 900 mV
I: I(mn:1) = 37.21 uA
DC simulation time: CPU = 24.271 ms, elapsed = 58.12 ms.

Notice from spectre at gs = 900e-03 during DC analysis `sweepvds-013_sweepvgs', during Sweep analysis `sweepvds'.
    The value of parameter 'gs' has been reset to the original value 0.

Total time required for dc analysis `sweepvds-013_sweepvgs': CPU = 24.329 ms, elapsed = 58.3181 ms.
Time accumulated: CPU = 1.01384 s, elapsed = 1.57055 s.
Peak resident memory used = 94.8 Mbytes.


++++++++++++++++++++++++++++++++++
sweepvds: ds = 350e-03 (38.8889 %)
++++++++++++++++++++++++++++++++++
Time for sweepvds itNum=14: CPU = 199 us, elapsed = 355.005 us.
Time accumulated: CPU = 1.01429 s, elapsed = 1.57169 s.
Peak resident memory used = 94.8 Mbytes.


********************************************************
DC Analysis `sweepvds-014_sweepvgs': gs = (0 -> 900e-03)
********************************************************

Notice from spectre during DC analysis `sweepvds-014_sweepvgs', during Sweep analysis `sweepvds'.
    No outputs were found. Loosening output filter criterion to `allpub'.


Opening the PSF file ./techsweep.raw/sweepvds-014_sweepvgs.dc ...
Important parameter values:
    reltol = 100e-06
    abstol(V) = 1 uV
    abstol(I) = 100 pA
    temp = 27 C
    tnom = 27 C
    tempeffects = all
    gmindc = 100 fS
...........9...........8...........7...........6...........5...........4...........3...........2...........1...........0

Maximum value achieved for any signal of each quantity: 
V: V(vgp) = 900 mV
I: I(mn:1) = 37.39 uA
DC simulation time: CPU = 23.744 ms, elapsed = 58.4469 ms.

Notice from spectre at gs = 900e-03 during DC analysis `sweepvds-014_sweepvgs', during Sweep analysis `sweepvds'.
    The value of parameter 'gs' has been reset to the original value 0.

Total time required for dc analysis `sweepvds-014_sweepvgs': CPU = 23.808 ms, elapsed = 58.6541 ms.
Time accumulated: CPU = 1.0387 s, elapsed = 1.63282 s.
Peak resident memory used = 94.8 Mbytes.


++++++++++++++++++++++++++++++++++
sweepvds: ds = 375e-03 (41.6667 %)
++++++++++++++++++++++++++++++++++
Time for sweepvds itNum=15: CPU = 141 us, elapsed = 281.811 us.
Time accumulated: CPU = 1.03895 s, elapsed = 1.63363 s.
Peak resident memory used = 94.8 Mbytes.


********************************************************
DC Analysis `sweepvds-015_sweepvgs': gs = (0 -> 900e-03)
********************************************************

Notice from spectre during DC analysis `sweepvds-015_sweepvgs', during Sweep analysis `sweepvds'.
    No outputs were found. Loosening output filter criterion to `allpub'.


Opening the PSF file ./techsweep.raw/sweepvds-015_sweepvgs.dc ...
Important parameter values:
    reltol = 100e-06
    abstol(V) = 1 uV
    abstol(I) = 100 pA
    temp = 27 C
    tnom = 27 C
    tempeffects = all
    gmindc = 100 fS
...........9...........8...........7...........6...........5...........4...........3...........2...........1...........0

Maximum value achieved for any signal of each quantity: 
V: V(vgp) = 900 mV
I: I(mn:1) = 37.54 uA
DC simulation time: CPU = 23.138 ms, elapsed = 57.524 ms.

Notice from spectre at gs = 900e-03 during DC analysis `sweepvds-015_sweepvgs', during Sweep analysis `sweepvds'.
    The value of parameter 'gs' has been reset to the original value 0.

Total time required for dc analysis `sweepvds-015_sweepvgs': CPU = 23.195 ms, elapsed = 57.7481 ms.
Time accumulated: CPU = 1.06277 s, elapsed = 1.69407 s.
Peak resident memory used = 94.8 Mbytes.


++++++++++++++++++++++++++++++++++
sweepvds: ds = 400e-03 (44.4444 %)
++++++++++++++++++++++++++++++++++
Time for sweepvds itNum=16: CPU = 156 us, elapsed = 302.076 us.
Time accumulated: CPU = 1.06304 s, elapsed = 1.69491 s.
Peak resident memory used = 94.8 Mbytes.


********************************************************
DC Analysis `sweepvds-016_sweepvgs': gs = (0 -> 900e-03)
********************************************************

Notice from spectre during DC analysis `sweepvds-016_sweepvgs', during Sweep analysis `sweepvds'.
    No outputs were found. Loosening output filter criterion to `allpub'.


Opening the PSF file ./techsweep.raw/sweepvds-016_sweepvgs.dc ...
Important parameter values:
    reltol = 100e-06
    abstol(V) = 1 uV
    abstol(I) = 100 pA
    temp = 27 C
    tnom = 27 C
    tempeffects = all
    gmindc = 100 fS
...........9...........8...........7...........6...........5...........4...........3...........2...........1...........0

Maximum value achieved for any signal of each quantity: 
V: V(vgp) = 900 mV
I: I(mn:1) = 37.68 uA
DC simulation time: CPU = 35.995 ms, elapsed = 69.7682 ms.

Notice from spectre at gs = 900e-03 during DC analysis `sweepvds-016_sweepvgs', during Sweep analysis `sweepvds'.
    The value of parameter 'gs' has been reset to the original value 0.

Total time required for dc analysis `sweepvds-016_sweepvgs': CPU = 36.05 ms, elapsed = 69.9642 ms.
Time accumulated: CPU = 1.0997 s, elapsed = 1.76851 s.
Peak resident memory used = 94.8 Mbytes.


++++++++++++++++++++++++++++++++++
sweepvds: ds = 425e-03 (47.2222 %)
++++++++++++++++++++++++++++++++++
Time for sweepvds itNum=17: CPU = 151 us, elapsed = 292.063 us.
Time accumulated: CPU = 1.09997 s, elapsed = 1.76958 s.
Peak resident memory used = 94.8 Mbytes.


********************************************************
DC Analysis `sweepvds-017_sweepvgs': gs = (0 -> 900e-03)
********************************************************

Notice from spectre during DC analysis `sweepvds-017_sweepvgs', during Sweep analysis `sweepvds'.
    No outputs were found. Loosening output filter criterion to `allpub'.


Opening the PSF file ./techsweep.raw/sweepvds-017_sweepvgs.dc ...
Important parameter values:
    reltol = 100e-06
    abstol(V) = 1 uV
    abstol(I) = 100 pA
    temp = 27 C
    tnom = 27 C
    tempeffects = all
    gmindc = 100 fS
...........9...........8...........7...........6...........5...........4...........3...........2...........1...........0

Maximum value achieved for any signal of each quantity: 
V: V(vgp) = 900 mV
I: I(mn:1) = 37.8 uA
DC simulation time: CPU = 25.149 ms, elapsed = 59.1302 ms.

Notice from spectre at gs = 900e-03 during DC analysis `sweepvds-017_sweepvgs', during Sweep analysis `sweepvds'.
    The value of parameter 'gs' has been reset to the original value 0.

Total time required for dc analysis `sweepvds-017_sweepvgs': CPU = 25.209 ms, elapsed = 59.3319 ms.
Time accumulated: CPU = 1.12578 s, elapsed = 1.83131 s.
Peak resident memory used = 94.8 Mbytes.


+++++++++++++++++++++++++++++
sweepvds: ds = 450e-03 (50 %)
+++++++++++++++++++++++++++++
Time for sweepvds itNum=18: CPU = 139 us, elapsed = 283.957 us.
Time accumulated: CPU = 1.12603 s, elapsed = 1.83225 s.
Peak resident memory used = 94.8 Mbytes.


********************************************************
DC Analysis `sweepvds-018_sweepvgs': gs = (0 -> 900e-03)
********************************************************

Notice from spectre during DC analysis `sweepvds-018_sweepvgs', during Sweep analysis `sweepvds'.
    No outputs were found. Loosening output filter criterion to `allpub'.


Opening the PSF file ./techsweep.raw/sweepvds-018_sweepvgs.dc ...
Important parameter values:
    reltol = 100e-06
    abstol(V) = 1 uV
    abstol(I) = 100 pA
    temp = 27 C
    tnom = 27 C
    tempeffects = all
    gmindc = 100 fS
...........9...........8...........7...........6...........5...........4...........3...........2...........1...........0

Maximum value achieved for any signal of each quantity: 
V: V(vgp) = 900 mV
I: I(mn:1) = 37.92 uA
DC simulation time: CPU = 23.356 ms, elapsed = 60.3819 ms.

Notice from spectre at gs = 900e-03 during DC analysis `sweepvds-018_sweepvgs', during Sweep analysis `sweepvds'.
    The value of parameter 'gs' has been reset to the original value 0.

Total time required for dc analysis `sweepvds-018_sweepvgs': CPU = 23.41 ms, elapsed = 60.5772 ms.
Time accumulated: CPU = 1.15006 s, elapsed = 1.89544 s.
Peak resident memory used = 94.8 Mbytes.


++++++++++++++++++++++++++++++++++
sweepvds: ds = 475e-03 (52.7778 %)
++++++++++++++++++++++++++++++++++
Time for sweepvds itNum=19: CPU = 143 us, elapsed = 283.957 us.
Time accumulated: CPU = 1.15032 s, elapsed = 1.89627 s.
Peak resident memory used = 94.8 Mbytes.


********************************************************
DC Analysis `sweepvds-019_sweepvgs': gs = (0 -> 900e-03)
********************************************************

Notice from spectre during DC analysis `sweepvds-019_sweepvgs', during Sweep analysis `sweepvds'.
    No outputs were found. Loosening output filter criterion to `allpub'.


Opening the PSF file ./techsweep.raw/sweepvds-019_sweepvgs.dc ...
Important parameter values:
    reltol = 100e-06
    abstol(V) = 1 uV
    abstol(I) = 100 pA
    temp = 27 C
    tnom = 27 C
    tempeffects = all
    gmindc = 100 fS
...........9...........8...........7...........6...........5...........4...........3...........2...........1...........0

Maximum value achieved for any signal of each quantity: 
V: V(vgp) = 900 mV
I: I(mn:1) = 38.03 uA
DC simulation time: CPU = 23.375 ms, elapsed = 59.2048 ms.

Notice from spectre at gs = 900e-03 during DC analysis `sweepvds-019_sweepvgs', during Sweep analysis `sweepvds'.
    The value of parameter 'gs' has been reset to the original value 0.

Total time required for dc analysis `sweepvds-019_sweepvgs': CPU = 23.43 ms, elapsed = 59.3989 ms.
Time accumulated: CPU = 1.17444 s, elapsed = 1.95818 s.
Peak resident memory used = 94.8 Mbytes.


++++++++++++++++++++++++++++++++++
sweepvds: ds = 500e-03 (55.5556 %)
++++++++++++++++++++++++++++++++++
Time for sweepvds itNum=20: CPU = 142 us, elapsed = 286.102 us.
Time accumulated: CPU = 1.1747 s, elapsed = 1.959 s.
Peak resident memory used = 94.8 Mbytes.


********************************************************
DC Analysis `sweepvds-020_sweepvgs': gs = (0 -> 900e-03)
********************************************************

Notice from spectre during DC analysis `sweepvds-020_sweepvgs', during Sweep analysis `sweepvds'.
    No outputs were found. Loosening output filter criterion to `allpub'.


Opening the PSF file ./techsweep.raw/sweepvds-020_sweepvgs.dc ...
Important parameter values:
    reltol = 100e-06
    abstol(V) = 1 uV
    abstol(I) = 100 pA
    temp = 27 C
    tnom = 27 C
    tempeffects = all
    gmindc = 100 fS
...........9...........8...........7...........6...........5...........4...........3...........2...........1...........0

Maximum value achieved for any signal of each quantity: 
V: V(vgp) = 900 mV
I: I(mn:1) = 38.13 uA
DC simulation time: CPU = 25.726 ms, elapsed = 60.1881 ms.

Notice from spectre at gs = 900e-03 during DC analysis `sweepvds-020_sweepvgs', during Sweep analysis `sweepvds'.
    The value of parameter 'gs' has been reset to the original value 0.

Total time required for dc analysis `sweepvds-020_sweepvgs': CPU = 25.781 ms, elapsed = 60.3831 ms.
Time accumulated: CPU = 1.20111 s, elapsed = 2.02216 s.
Peak resident memory used = 94.8 Mbytes.


++++++++++++++++++++++++++++++++++
sweepvds: ds = 525e-03 (58.3333 %)
++++++++++++++++++++++++++++++++++
Time for sweepvds itNum=21: CPU = 161 us, elapsed = 303.984 us.
Time accumulated: CPU = 1.2014 s, elapsed = 2.02302 s.
Peak resident memory used = 94.8 Mbytes.


********************************************************
DC Analysis `sweepvds-021_sweepvgs': gs = (0 -> 900e-03)
********************************************************

Notice from spectre during DC analysis `sweepvds-021_sweepvgs', during Sweep analysis `sweepvds'.
    No outputs were found. Loosening output filter criterion to `allpub'.


Opening the PSF file ./techsweep.raw/sweepvds-021_sweepvgs.dc ...
Important parameter values:
    reltol = 100e-06
    abstol(V) = 1 uV
    abstol(I) = 100 pA
    temp = 27 C
    tnom = 27 C
    tempeffects = all
    gmindc = 100 fS
...........9...........8...........7...........6...........5...........4...........3...........2...........1...........0

Maximum value achieved for any signal of each quantity: 
V: V(vgp) = 900 mV
I: I(mn:1) = 38.23 uA
DC simulation time: CPU = 35.554 ms, elapsed = 69.9549 ms.

Notice from spectre at gs = 900e-03 during DC analysis `sweepvds-021_sweepvgs', during Sweep analysis `sweepvds'.
    The value of parameter 'gs' has been reset to the original value 0.

Total time required for dc analysis `sweepvds-021_sweepvgs': CPU = 35.621 ms, elapsed = 70.168 ms.
Time accumulated: CPU = 1.23762 s, elapsed = 2.09556 s.
Peak resident memory used = 94.8 Mbytes.


++++++++++++++++++++++++++++++++++
sweepvds: ds = 550e-03 (61.1111 %)
++++++++++++++++++++++++++++++++++
Time for sweepvds itNum=22: CPU = 137 us, elapsed = 277.042 us.
Time accumulated: CPU = 1.23788 s, elapsed = 2.09666 s.
Peak resident memory used = 94.8 Mbytes.


********************************************************
DC Analysis `sweepvds-022_sweepvgs': gs = (0 -> 900e-03)
********************************************************

Notice from spectre during DC analysis `sweepvds-022_sweepvgs', during Sweep analysis `sweepvds'.
    No outputs were found. Loosening output filter criterion to `allpub'.


Opening the PSF file ./techsweep.raw/sweepvds-022_sweepvgs.dc ...
Important parameter values:
    reltol = 100e-06
    abstol(V) = 1 uV
    abstol(I) = 100 pA
    temp = 27 C
    tnom = 27 C
    tempeffects = all
    gmindc = 100 fS
...........9...........8...........7...........6...........5...........4...........3...........2...........1...........0

Maximum value achieved for any signal of each quantity: 
V: V(vgp) = 900 mV
I: I(mn:1) = 38.32 uA
DC simulation time: CPU = 24.552 ms, elapsed = 63.385 ms.

Notice from spectre at gs = 900e-03 during DC analysis `sweepvds-022_sweepvgs', during Sweep analysis `sweepvds'.
    The value of parameter 'gs' has been reset to the original value 0.

Total time required for dc analysis `sweepvds-022_sweepvgs': CPU = 24.607 ms, elapsed = 63.5829 ms.
Time accumulated: CPU = 1.26313 s, elapsed = 2.16277 s.
Peak resident memory used = 94.8 Mbytes.


++++++++++++++++++++++++++++++++++
sweepvds: ds = 575e-03 (63.8889 %)
++++++++++++++++++++++++++++++++++
Time for sweepvds itNum=23: CPU = 139 us, elapsed = 278.95 us.
Time accumulated: CPU = 1.26339 s, elapsed = 2.16359 s.
Peak resident memory used = 94.8 Mbytes.


********************************************************
DC Analysis `sweepvds-023_sweepvgs': gs = (0 -> 900e-03)
********************************************************

Notice from spectre during DC analysis `sweepvds-023_sweepvgs', during Sweep analysis `sweepvds'.
    No outputs were found. Loosening output filter criterion to `allpub'.


Opening the PSF file ./techsweep.raw/sweepvds-023_sweepvgs.dc ...
Important parameter values:
    reltol = 100e-06
    abstol(V) = 1 uV
    abstol(I) = 100 pA
    temp = 27 C
    tnom = 27 C
    tempeffects = all
    gmindc = 100 fS
...........9...........8...........7...........6...........5...........4...........3...........2...........1...........0

Maximum value achieved for any signal of each quantity: 
V: V(vgp) = 900 mV
I: I(mn:1) = 38.41 uA
DC simulation time: CPU = 25.23 ms, elapsed = 59.983 ms.

Notice from spectre at gs = 900e-03 during DC analysis `sweepvds-023_sweepvgs', during Sweep analysis `sweepvds'.
    The value of parameter 'gs' has been reset to the original value 0.

Total time required for dc analysis `sweepvds-023_sweepvgs': CPU = 25.281 ms, elapsed = 60.1749 ms.
Time accumulated: CPU = 1.28926 s, elapsed = 2.2263 s.
Peak resident memory used = 94.8 Mbytes.


++++++++++++++++++++++++++++++++++
sweepvds: ds = 600e-03 (66.6667 %)
++++++++++++++++++++++++++++++++++
Time for sweepvds itNum=24: CPU = 137 us, elapsed = 276.089 us.
Time accumulated: CPU = 1.2895 s, elapsed = 2.22711 s.
Peak resident memory used = 94.8 Mbytes.


********************************************************
DC Analysis `sweepvds-024_sweepvgs': gs = (0 -> 900e-03)
********************************************************

Notice from spectre during DC analysis `sweepvds-024_sweepvgs', during Sweep analysis `sweepvds'.
    No outputs were found. Loosening output filter criterion to `allpub'.


Opening the PSF file ./techsweep.raw/sweepvds-024_sweepvgs.dc ...
Important parameter values:
    reltol = 100e-06
    abstol(V) = 1 uV
    abstol(I) = 100 pA
    temp = 27 C
    tnom = 27 C
    tempeffects = all
    gmindc = 100 fS
...........9...........8...........7...........6...........5...........4...........3...........2...........1...........0

Maximum value achieved for any signal of each quantity: 
V: V(vgp) = 900 mV
I: I(mn:1) = 38.49 uA
DC simulation time: CPU = 23.27 ms, elapsed = 57.3261 ms.

Notice from spectre at gs = 900e-03 during DC analysis `sweepvds-024_sweepvgs', during Sweep analysis `sweepvds'.
    The value of parameter 'gs' has been reset to the original value 0.

Total time required for dc analysis `sweepvds-024_sweepvgs': CPU = 23.326 ms, elapsed = 57.5218 ms.
Time accumulated: CPU = 1.31346 s, elapsed = 2.28772 s.
Peak resident memory used = 94.8 Mbytes.


++++++++++++++++++++++++++++++++++
sweepvds: ds = 625e-03 (69.4444 %)
++++++++++++++++++++++++++++++++++
Time for sweepvds itNum=25: CPU = 145 us, elapsed = 283.957 us.
Time accumulated: CPU = 1.31373 s, elapsed = 2.28858 s.
Peak resident memory used = 94.8 Mbytes.


********************************************************
DC Analysis `sweepvds-025_sweepvgs': gs = (0 -> 900e-03)
********************************************************

Notice from spectre during DC analysis `sweepvds-025_sweepvgs', during Sweep analysis `sweepvds'.
    No outputs were found. Loosening output filter criterion to `allpub'.


Opening the PSF file ./techsweep.raw/sweepvds-025_sweepvgs.dc ...
Important parameter values:
    reltol = 100e-06
    abstol(V) = 1 uV
    abstol(I) = 100 pA
    temp = 27 C
    tnom = 27 C
    tempeffects = all
    gmindc = 100 fS
...........9...........8...........7...........6...........5...........4...........3...........2...........1...........0

Maximum value achieved for any signal of each quantity: 
V: V(vgp) = 900 mV
I: I(mn:1) = 38.58 uA
DC simulation time: CPU = 24.102 ms, elapsed = 59.5579 ms.

Notice from spectre at gs = 900e-03 during DC analysis `sweepvds-025_sweepvgs', during Sweep analysis `sweepvds'.
    The value of parameter 'gs' has been reset to the original value 0.

Total time required for dc analysis `sweepvds-025_sweepvgs': CPU = 24.167 ms, elapsed = 59.767 ms.
Time accumulated: CPU = 1.33868 s, elapsed = 2.35129 s.
Peak resident memory used = 94.8 Mbytes.


++++++++++++++++++++++++++++++++++
sweepvds: ds = 650e-03 (72.2222 %)
++++++++++++++++++++++++++++++++++
Time for sweepvds itNum=26: CPU = 263 us, elapsed = 409.842 us.
Time accumulated: CPU = 1.35139 s, elapsed = 2.36477 s.
Peak resident memory used = 94.8 Mbytes.


********************************************************
DC Analysis `sweepvds-026_sweepvgs': gs = (0 -> 900e-03)
********************************************************

Notice from spectre during DC analysis `sweepvds-026_sweepvgs', during Sweep analysis `sweepvds'.
    No outputs were found. Loosening output filter criterion to `allpub'.


Opening the PSF file ./techsweep.raw/sweepvds-026_sweepvgs.dc ...
Important parameter values:
    reltol = 100e-06
    abstol(V) = 1 uV
    abstol(I) = 100 pA
    temp = 27 C
    tnom = 27 C
    tempeffects = all
    gmindc = 100 fS
...........9...........8...........7...........6...........5...........4...........3...........2...........1...........0

Maximum value achieved for any signal of each quantity: 
V: V(vgp) = 900 mV
I: I(mn:1) = 38.65 uA
DC simulation time: CPU = 25.858 ms, elapsed = 60.03 ms.

Notice from spectre at gs = 900e-03 during DC analysis `sweepvds-026_sweepvgs', during Sweep analysis `sweepvds'.
    The value of parameter 'gs' has been reset to the original value 0.

Total time required for dc analysis `sweepvds-026_sweepvgs': CPU = 25.926 ms, elapsed = 60.2369 ms.
Time accumulated: CPU = 1.37796 s, elapsed = 2.4276 s.
Peak resident memory used = 94.8 Mbytes.


+++++++++++++++++++++++++++++
sweepvds: ds = 675e-03 (75 %)
+++++++++++++++++++++++++++++
Time for sweepvds itNum=27: CPU = 137 us, elapsed = 277.042 us.
Time accumulated: CPU = 1.37821 s, elapsed = 2.42842 s.
Peak resident memory used = 94.8 Mbytes.


********************************************************
DC Analysis `sweepvds-027_sweepvgs': gs = (0 -> 900e-03)
********************************************************

Notice from spectre during DC analysis `sweepvds-027_sweepvgs', during Sweep analysis `sweepvds'.
    No outputs were found. Loosening output filter criterion to `allpub'.


Opening the PSF file ./techsweep.raw/sweepvds-027_sweepvgs.dc ...
Important parameter values:
    reltol = 100e-06
    abstol(V) = 1 uV
    abstol(I) = 100 pA
    temp = 27 C
    tnom = 27 C
    tempeffects = all
    gmindc = 100 fS
...........9...........8...........7...........6...........5...........4...........3...........2...........1...........0

Maximum value achieved for any signal of each quantity: 
V: V(vgp) = 900 mV
I: I(mn:1) = 38.73 uA
DC simulation time: CPU = 25.464 ms, elapsed = 60.1149 ms.

Notice from spectre at gs = 900e-03 during DC analysis `sweepvds-027_sweepvgs', during Sweep analysis `sweepvds'.
    The value of parameter 'gs' has been reset to the original value 0.

Total time required for dc analysis `sweepvds-027_sweepvgs': CPU = 25.517 ms, elapsed = 60.3111 ms.
Time accumulated: CPU = 1.40443 s, elapsed = 2.49126 s.
Peak resident memory used = 94.8 Mbytes.


++++++++++++++++++++++++++++++++++
sweepvds: ds = 700e-03 (77.7778 %)
++++++++++++++++++++++++++++++++++
Time for sweepvds itNum=28: CPU = 135 us, elapsed = 277.042 us.
Time accumulated: CPU = 1.40468 s, elapsed = 2.49205 s.
Peak resident memory used = 94.8 Mbytes.


********************************************************
DC Analysis `sweepvds-028_sweepvgs': gs = (0 -> 900e-03)
********************************************************

Notice from spectre during DC analysis `sweepvds-028_sweepvgs', during Sweep analysis `sweepvds'.
    No outputs were found. Loosening output filter criterion to `allpub'.


Opening the PSF file ./techsweep.raw/sweepvds-028_sweepvgs.dc ...
Important parameter values:
    reltol = 100e-06
    abstol(V) = 1 uV
    abstol(I) = 100 pA
    temp = 27 C
    tnom = 27 C
    tempeffects = all
    gmindc = 100 fS
...........9...........8...........7...........6...........5...........4...........3...........2...........1...........0

Maximum value achieved for any signal of each quantity: 
V: V(vgp) = 900 mV
I: I(mn:1) = 38.8 uA
DC simulation time: CPU = 24.421 ms, elapsed = 58.187 ms.

Notice from spectre at gs = 900e-03 during DC analysis `sweepvds-028_sweepvgs', during Sweep analysis `sweepvds'.
    The value of parameter 'gs' has been reset to the original value 0.

Total time required for dc analysis `sweepvds-028_sweepvgs': CPU = 24.474 ms, elapsed = 58.3792 ms.
Time accumulated: CPU = 1.42974 s, elapsed = 2.5528 s.
Peak resident memory used = 94.8 Mbytes.


++++++++++++++++++++++++++++++++++
sweepvds: ds = 725e-03 (80.5556 %)
++++++++++++++++++++++++++++++++++
Time for sweepvds itNum=29: CPU = 149 us, elapsed = 289.917 us.
Time accumulated: CPU = 1.43021 s, elapsed = 2.55426 s.
Peak resident memory used = 94.8 Mbytes.


********************************************************
DC Analysis `sweepvds-029_sweepvgs': gs = (0 -> 900e-03)
********************************************************

Notice from spectre during DC analysis `sweepvds-029_sweepvgs', during Sweep analysis `sweepvds'.
    No outputs were found. Loosening output filter criterion to `allpub'.


Opening the PSF file ./techsweep.raw/sweepvds-029_sweepvgs.dc ...
Important parameter values:
    reltol = 100e-06
    abstol(V) = 1 uV
    abstol(I) = 100 pA
    temp = 27 C
    tnom = 27 C
    tempeffects = all
    gmindc = 100 fS
...........9...........8...........7...........6...........5...........4...........3...........2...........1...........0

Maximum value achieved for any signal of each quantity: 
V: V(vgp) = 900 mV
I: I(mn:1) = 38.87 uA
DC simulation time: CPU = 25.441 ms, elapsed = 61.7812 ms.

Notice from spectre at gs = 900e-03 during DC analysis `sweepvds-029_sweepvgs', during Sweep analysis `sweepvds'.
    The value of parameter 'gs' has been reset to the original value 0.

Total time required for dc analysis `sweepvds-029_sweepvgs': CPU = 25.505 ms, elapsed = 61.9838 ms.
Time accumulated: CPU = 1.45633 s, elapsed = 2.61866 s.
Peak resident memory used = 94.8 Mbytes.


++++++++++++++++++++++++++++++++++
sweepvds: ds = 750e-03 (83.3333 %)
++++++++++++++++++++++++++++++++++
Time for sweepvds itNum=30: CPU = 150 us, elapsed = 293.97 us.
Time accumulated: CPU = 1.45659 s, elapsed = 2.61971 s.
Peak resident memory used = 94.8 Mbytes.


********************************************************
DC Analysis `sweepvds-030_sweepvgs': gs = (0 -> 900e-03)
********************************************************

Notice from spectre during DC analysis `sweepvds-030_sweepvgs', during Sweep analysis `sweepvds'.
    No outputs were found. Loosening output filter criterion to `allpub'.


Opening the PSF file ./techsweep.raw/sweepvds-030_sweepvgs.dc ...
Important parameter values:
    reltol = 100e-06
    abstol(V) = 1 uV
    abstol(I) = 100 pA
    temp = 27 C
    tnom = 27 C
    tempeffects = all
    gmindc = 100 fS
...........9...........8...........7...........6...........5...........4...........3...........2...........1...........0

Maximum value achieved for any signal of each quantity: 
V: V(vgp) = 900 mV
I: I(mn:1) = 38.94 uA
DC simulation time: CPU = 22.694 ms, elapsed = 58.615 ms.

Notice from spectre at gs = 900e-03 during DC analysis `sweepvds-030_sweepvgs', during Sweep analysis `sweepvds'.
    The value of parameter 'gs' has been reset to the original value 0.

Total time required for dc analysis `sweepvds-030_sweepvgs': CPU = 22.75 ms, elapsed = 58.815 ms.
Time accumulated: CPU = 1.48001 s, elapsed = 2.68107 s.
Peak resident memory used = 94.8 Mbytes.


++++++++++++++++++++++++++++++++++
sweepvds: ds = 775e-03 (86.1111 %)
++++++++++++++++++++++++++++++++++
Time for sweepvds itNum=31: CPU = 259 us, elapsed = 400.066 us.
Time accumulated: CPU = 1.48038 s, elapsed = 2.68202 s.
Peak resident memory used = 94.8 Mbytes.


********************************************************
DC Analysis `sweepvds-031_sweepvgs': gs = (0 -> 900e-03)
********************************************************

Notice from spectre during DC analysis `sweepvds-031_sweepvgs', during Sweep analysis `sweepvds'.
    No outputs were found. Loosening output filter criterion to `allpub'.


Opening the PSF file ./techsweep.raw/sweepvds-031_sweepvgs.dc ...
Important parameter values:
    reltol = 100e-06
    abstol(V) = 1 uV
    abstol(I) = 100 pA
    temp = 27 C
    tnom = 27 C
    tempeffects = all
    gmindc = 100 fS
...........9...........8...........7...........6...........5...........4...........3...........2...........1...........0

Maximum value achieved for any signal of each quantity: 
V: V(vgp) = 900 mV
I: I(mn:1) = 39 uA
DC simulation time: CPU = 34.883 ms, elapsed = 68.5949 ms.

Notice from spectre at gs = 900e-03 during DC analysis `sweepvds-031_sweepvgs', during Sweep analysis `sweepvds'.
    The value of parameter 'gs' has been reset to the original value 0.

Total time required for dc analysis `sweepvds-031_sweepvgs': CPU = 34.951 ms, elapsed = 68.804 ms.
Time accumulated: CPU = 1.51601 s, elapsed = 2.75509 s.
Peak resident memory used = 94.8 Mbytes.


++++++++++++++++++++++++++++++++++
sweepvds: ds = 800e-03 (88.8889 %)
++++++++++++++++++++++++++++++++++
Time for sweepvds itNum=32: CPU = 149 us, elapsed = 299.215 us.
Time accumulated: CPU = 1.51628 s, elapsed = 2.75594 s.
Peak resident memory used = 94.8 Mbytes.


********************************************************
DC Analysis `sweepvds-032_sweepvgs': gs = (0 -> 900e-03)
********************************************************

Notice from spectre during DC analysis `sweepvds-032_sweepvgs', during Sweep analysis `sweepvds'.
    No outputs were found. Loosening output filter criterion to `allpub'.


Opening the PSF file ./techsweep.raw/sweepvds-032_sweepvgs.dc ...
Important parameter values:
    reltol = 100e-06
    abstol(V) = 1 uV
    abstol(I) = 100 pA
    temp = 27 C
    tnom = 27 C
    tempeffects = all
    gmindc = 100 fS
...........9...........8...........7...........6...........5...........4...........3...........2...........1...........0

Maximum value achieved for any signal of each quantity: 
V: V(vgp) = 900 mV
I: I(mn:1) = 39.07 uA
DC simulation time: CPU = 23.592 ms, elapsed = 58.002 ms.

Notice from spectre at gs = 900e-03 during DC analysis `sweepvds-032_sweepvgs', during Sweep analysis `sweepvds'.
    The value of parameter 'gs' has been reset to the original value 0.

Total time required for dc analysis `sweepvds-032_sweepvgs': CPU = 23.657 ms, elapsed = 58.2869 ms.
Time accumulated: CPU = 1.54052 s, elapsed = 2.81661 s.
Peak resident memory used = 94.8 Mbytes.


++++++++++++++++++++++++++++++++++
sweepvds: ds = 825e-03 (91.6667 %)
++++++++++++++++++++++++++++++++++
Time for sweepvds itNum=33: CPU = 137 us, elapsed = 277.042 us.
Time accumulated: CPU = 1.54077 s, elapsed = 2.81742 s.
Peak resident memory used = 94.8 Mbytes.


********************************************************
DC Analysis `sweepvds-033_sweepvgs': gs = (0 -> 900e-03)
********************************************************

Notice from spectre during DC analysis `sweepvds-033_sweepvgs', during Sweep analysis `sweepvds'.
    No outputs were found. Loosening output filter criterion to `allpub'.


Opening the PSF file ./techsweep.raw/sweepvds-033_sweepvgs.dc ...
Important parameter values:
    reltol = 100e-06
    abstol(V) = 1 uV
    abstol(I) = 100 pA
    temp = 27 C
    tnom = 27 C
    tempeffects = all
    gmindc = 100 fS
...........9...........8...........7...........6...........5...........4...........3...........2...........1...........0

Maximum value achieved for any signal of each quantity: 
V: V(vgp) = 900 mV
I: I(mn:1) = 39.13 uA
DC simulation time: CPU = 24.865 ms, elapsed = 63.051 ms.

Notice from spectre at gs = 900e-03 during DC analysis `sweepvds-033_sweepvgs', during Sweep analysis `sweepvds'.
    The value of parameter 'gs' has been reset to the original value 0.

Total time required for dc analysis `sweepvds-033_sweepvgs': CPU = 24.919 ms, elapsed = 63.247 ms.
Time accumulated: CPU = 1.56638 s, elapsed = 2.88322 s.
Peak resident memory used = 94.8 Mbytes.


++++++++++++++++++++++++++++++++++
sweepvds: ds = 850e-03 (94.4444 %)
++++++++++++++++++++++++++++++++++
Time for sweepvds itNum=34: CPU = 150 us, elapsed = 308.037 us.
Time accumulated: CPU = 1.56664 s, elapsed = 2.88435 s.
Peak resident memory used = 94.8 Mbytes.


********************************************************
DC Analysis `sweepvds-034_sweepvgs': gs = (0 -> 900e-03)
********************************************************

Notice from spectre during DC analysis `sweepvds-034_sweepvgs', during Sweep analysis `sweepvds'.
    No outputs were found. Loosening output filter criterion to `allpub'.


Opening the PSF file ./techsweep.raw/sweepvds-034_sweepvgs.dc ...
Important parameter values:
    reltol = 100e-06
    abstol(V) = 1 uV
    abstol(I) = 100 pA
    temp = 27 C
    tnom = 27 C
    tempeffects = all
    gmindc = 100 fS
...........9...........8...........7...........6...........5...........4...........3...........2...........1...........0

Maximum value achieved for any signal of each quantity: 
V: V(vgp) = 900 mV
I: I(mn:1) = 39.19 uA
DC simulation time: CPU = 25.141 ms, elapsed = 57.9879 ms.

Notice from spectre at gs = 900e-03 during DC analysis `sweepvds-034_sweepvgs', during Sweep analysis `sweepvds'.
    The value of parameter 'gs' has been reset to the original value 0.

Total time required for dc analysis `sweepvds-034_sweepvgs': CPU = 25.196 ms, elapsed = 58.183 ms.
Time accumulated: CPU = 1.59249 s, elapsed = 2.94546 s.
Peak resident memory used = 94.8 Mbytes.


++++++++++++++++++++++++++++++++++
sweepvds: ds = 875e-03 (97.2222 %)
++++++++++++++++++++++++++++++++++
Time for sweepvds itNum=35: CPU = 140 us, elapsed = 280.857 us.
Time accumulated: CPU = 1.59275 s, elapsed = 2.94628 s.
Peak resident memory used = 94.8 Mbytes.


********************************************************
DC Analysis `sweepvds-035_sweepvgs': gs = (0 -> 900e-03)
********************************************************

Notice from spectre during DC analysis `sweepvds-035_sweepvgs', during Sweep analysis `sweepvds'.
    No outputs were found. Loosening output filter criterion to `allpub'.


Opening the PSF file ./techsweep.raw/sweepvds-035_sweepvgs.dc ...
Important parameter values:
    reltol = 100e-06
    abstol(V) = 1 uV
    abstol(I) = 100 pA
    temp = 27 C
    tnom = 27 C
    tempeffects = all
    gmindc = 100 fS
...........9...........8...........7...........6...........5...........4...........3...........2...........1...........0

Maximum value achieved for any signal of each quantity: 
V: V(vgp) = 900 mV
I: I(mn:1) = 39.25 uA
DC simulation time: CPU = 23.912 ms, elapsed = 59.046 ms.

Notice from spectre at gs = 900e-03 during DC analysis `sweepvds-035_sweepvgs', during Sweep analysis `sweepvds'.
    The value of parameter 'gs' has been reset to the original value 0.

Total time required for dc analysis `sweepvds-035_sweepvgs': CPU = 23.968 ms, elapsed = 59.2418 ms.
Time accumulated: CPU = 1.61743 s, elapsed = 3.00821 s.
Peak resident memory used = 94.9 Mbytes.


++++++++++++++++++++++++++++++
sweepvds: ds = 900e-03 (100 %)
++++++++++++++++++++++++++++++
Time for sweepvds itNum=36: CPU = 141 us, elapsed = 283.003 us.
Time accumulated: CPU = 1.61768 s, elapsed = 3.00904 s.
Peak resident memory used = 94.9 Mbytes.


********************************************************
DC Analysis `sweepvds-036_sweepvgs': gs = (0 -> 900e-03)
********************************************************

Notice from spectre during DC analysis `sweepvds-036_sweepvgs', during Sweep analysis `sweepvds'.
    No outputs were found. Loosening output filter criterion to `allpub'.


Opening the PSF file ./techsweep.raw/sweepvds-036_sweepvgs.dc ...
Important parameter values:
    reltol = 100e-06
    abstol(V) = 1 uV
    abstol(I) = 100 pA
    temp = 27 C
    tnom = 27 C
    tempeffects = all
    gmindc = 100 fS
...........9...........8...........7...........6...........5...........4...........3...........2...........1...........0

Maximum value achieved for any signal of each quantity: 
V: V(vgp) = 900 mV
I: I(mn:1) = 39.31 uA
DC simulation time: CPU = 33.517 ms, elapsed = 68.8381 ms.

Notice from spectre at gs = 900e-03 during DC analysis `sweepvds-036_sweepvgs', during Sweep analysis `sweepvds'.
    The value of parameter 'gs' has been reset to the original value 0.

Total time required for dc analysis `sweepvds-036_sweepvgs': CPU = 33.646 ms, elapsed = 69.1149 ms.
Time accumulated: CPU = 1.65201 s, elapsed = 3.08065 s.
Peak resident memory used = 94.9 Mbytes.

Total time required for sweep analysis `sweepvds': CPU = 1.05114 s, elapsed = 2.48354 s.
Time accumulated: CPU = 1.65245 s, elapsed = 3.08277 s.
Peak resident memory used = 94.9 Mbytes.


****************************************************
Sweep Analysis `sweepvds_noise': ds = (0 -> 900e-03)
****************************************************

Opening the PSF file ./techsweep.raw/sweepvds_noise_sweepvgs_noise.sweep ...

++++++++++++++++++++++++++++
sweepvds_noise: ds = 0 (0 %)
++++++++++++++++++++++++++++
Time for sweepvds_noise itNum=0: CPU = 414 us, elapsed = 2.00105 ms.
Time accumulated: CPU = 1.65301 s, elapsed = 3.08535 s.
Peak resident memory used = 94.9 Mbytes.


********************************************************************************
Noise Analysis `sweepvds_noise-000_sweepvgs_noise': freq = 1 Hz, gs = (0 -> 900e-03)
********************************************************************************

Notice from spectre at ds = 0 during Noise analysis `sweepvds_noise-000_sweepvgs_noise', during Sweep analysis `sweepvds_noise'.
    No outputs were found. Loosening output filter criterion to `allpub'.

DC simulation time: CPU = 206 us, elapsed = 205.994 us.

Opening the PSF file ./techsweep.raw/sweepvds_noise-000_sweepvgs_noise.noise ...
DC simulation time: CPU = 92 us, elapsed = 91.0759 us.
...
DC simulation time: CPU = 72 us, elapsed = 70.8103 us.
.......
DC simulation time: CPU = 65 us, elapsed = 63.8962 us.
..........
DC simulation time: CPU = 76 us, elapsed = 75.1019 us.
...........9.
DC simulation time: CPU = 61 us, elapsed = 61.0352 us.
...........9.....
DC simulation time: CPU = 62 us, elapsed = 61.9888 us.
...........9........
DC simulation time: CPU = 71 us, elapsed = 72.0024 us.
...........9...........
DC simulation time: CPU = 71 us, elapsed = 71.0487 us.
...........9...........8...
DC simulation time: CPU = 79 us, elapsed = 77.9629 us.
...........9...........8......
DC simulation time: CPU = 160 us, elapsed = 158.072 us.
...........9...........8.........
DC simulation time: CPU = 150 us, elapsed = 149.012 us.
...........9...........8...........7.
DC simulation time: CPU = 89 us, elapsed = 87.9765 us.
...........9...........8...........7....
DC simulation time: CPU = 98 us, elapsed = 97.0364 us.
...........9...........8...........7.......
DC simulation time: CPU = 80 us, elapsed = 79.155 us.
...........9...........8...........7...........
DC simulation time: CPU = 71 us, elapsed = 71.0487 us.
...........9...........8...........7...........6..
DC simulation time: CPU = 67 us, elapsed = 66.0419 us.
...........9...........8...........7...........6.....
DC simulation time: CPU = 86 us, elapsed = 85.8307 us.
...........9...........8...........7...........6.........
DC simulation time: CPU = 74 us, elapsed = 72.9561 us.
...........9...........8...........7...........6...........5
DC simulation time: CPU = 77 us, elapsed = 74.8634 us.
...........9...........8...........7...........6...........5...
DC simulation time: CPU = 82 us, elapsed = 80.8239 us.
...........9...........8...........7...........6...........5.......
DC simulation time: CPU = 73 us, elapsed = 72.0024 us.
...........9...........8...........7...........6...........5..........
DC simulation time: CPU = 93 us, elapsed = 92.9832 us.
...........9...........8...........7...........6...........5...........4.
DC simulation time: CPU = 115 us, elapsed = 114.918 us.
...........9...........8...........7...........6...........5...........4.....
DC simulation time: CPU = 83 us, elapsed = 81.0623 us.
...........9...........8...........7...........6...........5...........4........
DC simulation time: CPU = 155 us, elapsed = 153.065 us.
...........9...........8...........7...........6...........5...........4...........
DC simulation time: CPU = 91 us, elapsed = 90.1222 us.
...........9...........8...........7...........6...........5...........4...........3...
DC simulation time: CPU = 95 us, elapsed = 92.9832 us.
...........9...........8...........7...........6...........5...........4...........3......
DC simulation time: CPU = 112 us, elapsed = 111.103 us.
...........9...........8...........7...........6...........5...........4...........3.........
DC simulation time: CPU = 86 us, elapsed = 85.1154 us.
...........9...........8...........7...........6...........5...........4...........3...........2.
DC simulation time: CPU = 77 us, elapsed = 77.0092 us.
...........9...........8...........7...........6...........5...........4...........3...........2....
DC simulation time: CPU = 83 us, elapsed = 82.016 us.
...........9...........8...........7...........6...........5...........4...........3...........2.......
DC simulation time: CPU = 91 us, elapsed = 90.1222 us.
...........9...........8...........7...........6...........5...........4...........3...........2...........
DC simulation time: CPU = 105 us, elapsed = 105.143 us.
...........9...........8...........7...........6...........5...........4...........3...........2...........1..
DC simulation time: CPU = 90 us, elapsed = 89.8838 us.
...........9...........8...........7...........6...........5...........4...........3...........2...........1.....
DC simulation time: CPU = 130 us, elapsed = 128.984 us.
...........9...........8...........7...........6...........5...........4...........3...........2...........1.........
DC simulation time: CPU = 130 us, elapsed = 128.984 us.
...........9...........8...........7...........6...........5...........4...........3...........2...........1...........0
Accumulated DC solution time =            0 s.
Intrinsic noise analysis time =              0 s.
Total time required for noise analysis `sweepvds_noise-000_sweepvgs_noise': CPU = 140.622 ms, elapsed = 487.29 ms.
Time accumulated: CPU = 1.79468 s, elapsed = 3.57643 s.
Peak resident memory used = 95.1 Mbytes.


+++++++++++++++++++++++++++++++++++++++
sweepvds_noise: ds = 25e-03 (2.77778 %)
+++++++++++++++++++++++++++++++++++++++
Time for sweepvds_noise itNum=1: CPU = 227 us, elapsed = 386.953 us.
Time accumulated: CPU = 1.79504 s, elapsed = 3.57741 s.
Peak resident memory used = 95.1 Mbytes.


********************************************************************************
Noise Analysis `sweepvds_noise-001_sweepvgs_noise': freq = 1 Hz, gs = (0 -> 900e-03)
********************************************************************************

Notice from spectre during Noise analysis `sweepvds_noise-001_sweepvgs_noise', during Sweep analysis `sweepvds_noise'.
    No outputs were found. Loosening output filter criterion to `allpub'.

DC simulation time: CPU = 241 us, elapsed = 240.088 us.

Opening the PSF file ./techsweep.raw/sweepvds_noise-001_sweepvgs_noise.noise ...
DC simulation time: CPU = 91 us, elapsed = 88.9301 us.
...
DC simulation time: CPU = 66 us, elapsed = 65.0883 us.
.......
DC simulation time: CPU = 78 us, elapsed = 77.9629 us.
..........
DC simulation time: CPU = 75 us, elapsed = 75.1019 us.
...........9.
DC simulation time: CPU = 137 us, elapsed = 137.091 us.
...........9.....
DC simulation time: CPU = 62 us, elapsed = 61.9888 us.
...........9........
DC simulation time: CPU = 72 us, elapsed = 70.8103 us.
...........9...........
DC simulation time: CPU = 64 us, elapsed = 64.1346 us.
...........9...........8...
DC simulation time: CPU = 67 us, elapsed = 66.0419 us.
...........9...........8......
DC simulation time: CPU = 70 us, elapsed = 68.903 us.
...........9...........8.........
DC simulation time: CPU = 68 us, elapsed = 67.9493 us.
...........9...........8...........7.
DC simulation time: CPU = 69 us, elapsed = 66.9956 us.
...........9...........8...........7....
DC simulation time: CPU = 66 us, elapsed = 63.8962 us.
...........9...........8...........7.......
DC simulation time: CPU = 115 us, elapsed = 114.918 us.
...........9...........8...........7...........
DC simulation time: CPU = 83 us, elapsed = 82.9697 us.
...........9...........8...........7...........6..
DC simulation time: CPU = 151 us, elapsed = 150.204 us.
...........9...........8...........7...........6.....
DC simulation time: CPU = 86 us, elapsed = 86.0691 us.
...........9...........8...........7...........6.........
DC simulation time: CPU = 73 us, elapsed = 72.0024 us.
...........9...........8...........7...........6...........5
DC simulation time: CPU = 104 us, elapsed = 102.997 us.
...........9...........8...........7...........6...........5...
DC simulation time: CPU = 88 us, elapsed = 87.0228 us.
...........9...........8...........7...........6...........5.......
DC simulation time: CPU = 77 us, elapsed = 75.1019 us.
...........9...........8...........7...........6...........5..........
DC simulation time: CPU = 132 us, elapsed = 131.13 us.
...........9...........8...........7...........6...........5...........4.
DC simulation time: CPU = 83 us, elapsed = 83.2081 us.
...........9...........8...........7...........6...........5...........4.....
DC simulation time: CPU = 107 us, elapsed = 107.05 us.
...........9...........8...........7...........6...........5...........4........
DC simulation time: CPU = 90 us, elapsed = 88.9301 us.
...........9...........8...........7...........6...........5...........4...........
DC simulation time: CPU = 84 us, elapsed = 82.9697 us.
...........9...........8...........7...........6...........5...........4...........3...
DC simulation time: CPU = 147 us, elapsed = 144.958 us.
...........9...........8...........7...........6...........5...........4...........3......
DC simulation time: CPU = 132 us, elapsed = 129.938 us.
...........9...........8...........7...........6...........5...........4...........3.........
DC simulation time: CPU = 265 us, elapsed = 265.121 us.
...........9...........8...........7...........6...........5...........4...........3...........2.
DC simulation time: CPU = 102 us, elapsed = 101.089 us.
...........9...........8...........7...........6...........5...........4...........3...........2....
DC simulation time: CPU = 97 us, elapsed = 96.0827 us.
...........9...........8...........7...........6...........5...........4...........3...........2.......
DC simulation time: CPU = 122 us, elapsed = 122.07 us.
...........9...........8...........7...........6...........5...........4...........3...........2...........
DC simulation time: CPU = 144 us, elapsed = 142.097 us.
...........9...........8...........7...........6...........5...........4...........3...........2...........1..
DC simulation time: CPU = 144 us, elapsed = 142.813 us.
...........9...........8...........7...........6...........5...........4...........3...........2...........1.....
DC simulation time: CPU = 149 us, elapsed = 148.058 us.
...........9...........8...........7...........6...........5...........4...........3...........2...........1.........
DC simulation time: CPU = 174 us, elapsed = 171.9 us.
...........9...........8...........7...........6...........5...........4...........3...........2...........1...........0
Accumulated DC solution time =            0 s.
Intrinsic noise analysis time =              0 s.
Total time required for noise analysis `sweepvds_noise-001_sweepvgs_noise': CPU = 145.198 ms, elapsed = 531.745 ms.
Time accumulated: CPU = 1.94111 s, elapsed = 4.11175 s.
Peak resident memory used = 95.1 Mbytes.


+++++++++++++++++++++++++++++++++++++++
sweepvds_noise: ds = 50e-03 (5.55556 %)
+++++++++++++++++++++++++++++++++++++++
Time for sweepvds_noise itNum=2: CPU = 269 us, elapsed = 415.087 us.
Time accumulated: CPU = 1.94149 s, elapsed = 4.11269 s.
Peak resident memory used = 95.1 Mbytes.


********************************************************************************
Noise Analysis `sweepvds_noise-002_sweepvgs_noise': freq = 1 Hz, gs = (0 -> 900e-03)
********************************************************************************

Notice from spectre during Noise analysis `sweepvds_noise-002_sweepvgs_noise', during Sweep analysis `sweepvds_noise'.
    No outputs were found. Loosening output filter criterion to `allpub'.

DC simulation time: CPU = 274 us, elapsed = 272.989 us.

Opening the PSF file ./techsweep.raw/sweepvds_noise-002_sweepvgs_noise.noise ...
DC simulation time: CPU = 125 us, elapsed = 123.978 us.
...
DC simulation time: CPU = 72 us, elapsed = 71.0487 us.
.......
DC simulation time: CPU = 85 us, elapsed = 83.9233 us.
..........
DC simulation time: CPU = 67 us, elapsed = 65.8035 us.
...........9.
DC simulation time: CPU = 92 us, elapsed = 92.0296 us.
...........9.....
DC simulation time: CPU = 130 us, elapsed = 131.13 us.
...........9........
DC simulation time: CPU = 63 us, elapsed = 62.9425 us.
...........9...........
DC simulation time: CPU = 79 us, elapsed = 78.9165 us.
...........9...........8...
DC simulation time: CPU = 71 us, elapsed = 70.0951 us.
...........9...........8......
DC simulation time: CPU = 66 us, elapsed = 66.0419 us.
...........9...........8.........
DC simulation time: CPU = 66 us, elapsed = 64.1346 us.
...........9...........8...........7.
DC simulation time: CPU = 110 us, elapsed = 108.957 us.
...........9...........8...........7....
DC simulation time: CPU = 72 us, elapsed = 72.0024 us.
...........9...........8...........7.......
DC simulation time: CPU = 71 us, elapsed = 70.0951 us.
...........9...........8...........7...........
DC simulation time: CPU = 77 us, elapsed = 77.0092 us.
...........9...........8...........7...........6..
DC simulation time: CPU = 76 us, elapsed = 75.1019 us.
...........9...........8...........7...........6.....
DC simulation time: CPU = 77 us, elapsed = 77.0092 us.
...........9...........8...........7...........6.........
DC simulation time: CPU = 95 us, elapsed = 90.1222 us.
...........9...........8...........7...........6...........5
DC simulation time: CPU = 108 us, elapsed = 107.05 us.
...........9...........8...........7...........6...........5...
DC simulation time: CPU = 82 us, elapsed = 82.016 us.
...........9...........8...........7...........6...........5.......
DC simulation time: CPU = 102 us, elapsed = 102.043 us.
...........9...........8...........7...........6...........5..........
DC simulation time: CPU = 712 us, elapsed = 712.156 us.
...........9...........8...........7...........6...........5...........4.
DC simulation time: CPU = 156 us, elapsed = 154.972 us.
...........9...........8...........7...........6...........5...........4.....
DC simulation time: CPU = 92 us, elapsed = 92.0296 us.
...........9...........8...........7...........6...........5...........4........
DC simulation time: CPU = 101 us, elapsed = 99.8974 us.
...........9...........8...........7...........6...........5...........4...........
DC simulation time: CPU = 100 us, elapsed = 98.9437 us.
...........9...........8...........7...........6...........5...........4...........3...
DC simulation time: CPU = 130 us, elapsed = 128.984 us.
...........9...........8...........7...........6...........5...........4...........3......
DC simulation time: CPU = 92 us, elapsed = 91.0759 us.
...........9...........8...........7...........6...........5...........4...........3.........
DC simulation time: CPU = 110 us, elapsed = 108.957 us.
...........9...........8...........7...........6...........5...........4...........3...........2.
DC simulation time: CPU = 93 us, elapsed = 91.7912 us.
...........9...........8...........7...........6...........5...........4...........3...........2....
DC simulation time: CPU = 98 us, elapsed = 96.7979 us.
...........9...........8...........7...........6...........5...........4...........3...........2.......
DC simulation time: CPU = 135 us, elapsed = 133.991 us.
...........9...........8...........7...........6...........5...........4...........3...........2...........
DC simulation time: CPU = 136 us, elapsed = 134.945 us.
...........9...........8...........7...........6...........5...........4...........3...........2...........1..
DC simulation time: CPU = 136 us, elapsed = 133.991 us.
...........9...........8...........7...........6...........5...........4...........3...........2...........1.....
DC simulation time: CPU = 236 us, elapsed = 233.889 us.
...........9...........8...........7...........6...........5...........4...........3...........2...........1.........
DC simulation time: CPU = 138 us, elapsed = 136.137 us.
...........9...........8...........7...........6...........5...........4...........3...........2...........1...........0
Accumulated DC solution time =            0 s.
Intrinsic noise analysis time =              0 s.
Total time required for noise analysis `sweepvds_noise-002_sweepvgs_noise': CPU = 153.858 ms, elapsed = 504.819 ms.
Time accumulated: CPU = 2.09617 s, elapsed = 4.62004 s.
Peak resident memory used = 95.1 Mbytes.


+++++++++++++++++++++++++++++++++++++++
sweepvds_noise: ds = 75e-03 (8.33333 %)
+++++++++++++++++++++++++++++++++++++++
Time for sweepvds_noise itNum=3: CPU = 216 us, elapsed = 355.959 us.
Time accumulated: CPU = 2.0965 s, elapsed = 4.62092 s.
Peak resident memory used = 95.1 Mbytes.


********************************************************************************
Noise Analysis `sweepvds_noise-003_sweepvgs_noise': freq = 1 Hz, gs = (0 -> 900e-03)
********************************************************************************

Notice from spectre during Noise analysis `sweepvds_noise-003_sweepvgs_noise', during Sweep analysis `sweepvds_noise'.
    No outputs were found. Loosening output filter criterion to `allpub'.

DC simulation time: CPU = 266 us, elapsed = 269.89 us.

Opening the PSF file ./techsweep.raw/sweepvds_noise-003_sweepvgs_noise.noise ...
DC simulation time: CPU = 88 us, elapsed = 87.0228 us.
...
DC simulation time: CPU = 65 us, elapsed = 65.0883 us.
.......
DC simulation time: CPU = 64 us, elapsed = 63.8962 us.
..........
DC simulation time: CPU = 64 us, elapsed = 63.1809 us.
...........9.
DC simulation time: CPU = 63 us, elapsed = 62.9425 us.
...........9.....
DC simulation time: CPU = 63 us, elapsed = 62.9425 us.
...........9........
DC simulation time: CPU = 66 us, elapsed = 64.8499 us.
...........9...........
DC simulation time: CPU = 66 us, elapsed = 66.0419 us.
...........9...........8...
DC simulation time: CPU = 91 us, elapsed = 89.8838 us.
...........9...........8......
DC simulation time: CPU = 69 us, elapsed = 68.1877 us.
...........9...........8.........
DC simulation time: CPU = 69 us, elapsed = 68.1877 us.
...........9...........8...........7.
DC simulation time: CPU = 82 us, elapsed = 82.016 us.
...........9...........8...........7....
DC simulation time: CPU = 161 us, elapsed = 161.171 us.
...........9...........8...........7.......
DC simulation time: CPU = 74 us, elapsed = 72.9561 us.
...........9...........8...........7...........
DC simulation time: CPU = 123 us, elapsed = 122.786 us.
...........9...........8...........7...........6..
DC simulation time: CPU = 84 us, elapsed = 82.9697 us.
...........9...........8...........7...........6.....
DC simulation time: CPU = 182 us, elapsed = 182.152 us.
...........9...........8...........7...........6.........
DC simulation time: CPU = 86 us, elapsed = 85.1154 us.
...........9...........8...........7...........6...........5
DC simulation time: CPU = 83 us, elapsed = 82.016 us.
...........9...........8...........7...........6...........5...
DC simulation time: CPU = 77 us, elapsed = 76.0555 us.
...........9...........8...........7...........6...........5.......
DC simulation time: CPU = 169 us, elapsed = 168.085 us.
...........9...........8...........7...........6...........5..........
DC simulation time: CPU = 95 us, elapsed = 94.8906 us.
...........9...........8...........7...........6...........5...........4.
DC simulation time: CPU = 89 us, elapsed = 89.1685 us.
...........9...........8...........7...........6...........5...........4.....
DC simulation time: CPU = 78 us, elapsed = 77.9629 us.
...........9...........8...........7...........6...........5...........4........
DC simulation time: CPU = 89 us, elapsed = 87.9765 us.
...........9...........8...........7...........6...........5...........4...........
DC simulation time: CPU = 219 us, elapsed = 218.153 us.
...........9...........8...........7...........6...........5...........4...........3...
DC simulation time: CPU = 191 us, elapsed = 188.112 us.
...........9...........8...........7...........6...........5...........4...........3......
[...]
...........9...........8...........7...........6...........5...
DC simulation time: CPU = 104 us, elapsed = 103.951 us.
...........9...........8...........7...........6...........5.......
DC simulation time: CPU = 91 us, elapsed = 91.0759 us.
...........9...........8...........7...........6...........5..........
DC simulation time: CPU = 83 us, elapsed = 82.9697 us.
...........9...........8...........7...........6...........5...........4.
DC simulation time: CPU = 83 us, elapsed = 82.016 us.
...........9...........8...........7...........6...........5...........4.....
DC simulation time: CPU = 84 us, elapsed = 83.9233 us.
...........9...........8...........7...........6...........5...........4........
DC simulation time: CPU = 203 us, elapsed = 200.987 us.
...........9...........8...........7...........6...........5...........4...........
DC simulation time: CPU = 143 us, elapsed = 141.859 us.
...........9...........8...........7...........6...........5...........4...........3...
DC simulation time: CPU = 107 us, elapsed = 105.858 us.
...........9...........8...........7...........6...........5...........4...........3......
DC simulation time: CPU = 95 us, elapsed = 93.9369 us.
...........9...........8...........7...........6...........5...........4...........3.........
DC simulation time: CPU = 96 us, elapsed = 94.8906 us.
...........9...........8...........7...........6...........5...........4...........3...........2.
DC simulation time: CPU = 97 us, elapsed = 96.7979 us.
...........9...........8...........7...........6...........5...........4...........3...........2....
DC simulation time: CPU = 88 us, elapsed = 87.9765 us.
...........9...........8...........7...........6...........5...........4...........3...........2.......
DC simulation time: CPU = 106 us, elapsed = 104.904 us.
...........9...........8...........7...........6...........5...........4...........3...........2...........
DC simulation time: CPU = 125 us, elapsed = 123.978 us.
...........9...........8...........7...........6...........5...........4...........3...........2...........1..
DC simulation time: CPU = 96 us, elapsed = 94.8906 us.
...........9...........8...........7...........6...........5...........4...........3...........2...........1.....
DC simulation time: CPU = 130 us, elapsed = 129.938 us.
...........9...........8...........7...........6...........5...........4...........3...........2...........1.........
DC simulation time: CPU = 155 us, elapsed = 153.065 us.
...........9...........8...........7...........6...........5...........4...........3...........2...........1...........0
Accumulated DC solution time =            0 s.
Intrinsic noise analysis time =              0 s.
Total time required for noise analysis `sweepvds_noise-033_sweepvgs_noise': CPU = 69.985 ms, elapsed = 471.569 ms.
Time accumulated: CPU = 5.24413 s, elapsed = 19.3957 s.
Peak resident memory used = 97.9 Mbytes.


++++++++++++++++++++++++++++++++++++++++
sweepvds_noise: ds = 850e-03 (94.4444 %)
++++++++++++++++++++++++++++++++++++++++
Time for sweepvds_noise itNum=34: CPU = 266 us, elapsed = 459.909 us.
Time accumulated: CPU = 5.24452 s, elapsed = 19.3967 s.
Peak resident memory used = 97.9 Mbytes.


********************************************************************************
Noise Analysis `sweepvds_noise-034_sweepvgs_noise': freq = 1 Hz, gs = (0 -> 900e-03)
********************************************************************************

Notice from spectre during Noise analysis `sweepvds_noise-034_sweepvgs_noise', during Sweep analysis `sweepvds_noise'.
    No outputs were found. Loosening output filter criterion to `allpub'.

DC simulation time: CPU = 246 us, elapsed = 247.002 us.

Opening the PSF file ./techsweep.raw/sweepvds_noise-034_sweepvgs_noise.noise ...
DC simulation time: CPU = 85 us, elapsed = 83.9233 us.
...
DC simulation time: CPU = 67 us, elapsed = 66.9956 us.
.......
DC simulation time: CPU = 64 us, elapsed = 63.8962 us.
..........
DC simulation time: CPU = 67 us, elapsed = 64.8499 us.
...........9.
DC simulation time: CPU = 71 us, elapsed = 69.8566 us.
...........9.....
DC simulation time: CPU = 65 us, elapsed = 63.8962 us.
...........9........
DC simulation time: CPU = 80 us, elapsed = 79.155 us.
...........9...........
DC simulation time: CPU = 65 us, elapsed = 63.8962 us.
...........9...........8...
DC simulation time: CPU = 141 us, elapsed = 140.905 us.
...........9...........8......
DC simulation time: CPU = 65 us, elapsed = 65.0883 us.
...........9...........8.........
DC simulation time: CPU = 73 us, elapsed = 72.0024 us.
...........9...........8...........7.
DC simulation time: CPU = 81 us, elapsed = 79.155 us.
...........9...........8...........7....
DC simulation time: CPU = 72 us, elapsed = 71.0487 us.
...........9...........8...........7.......
DC simulation time: CPU = 89 us, elapsed = 87.9765 us.
...........9...........8...........7...........
DC simulation time: CPU = 91 us, elapsed = 89.8838 us.
...........9...........8...........7...........6..
DC simulation time: CPU = 93 us, elapsed = 92.9832 us.
...........9...........8...........7...........6.....
DC simulation time: CPU = 90 us, elapsed = 88.9301 us.
...........9...........8...........7...........6.........
DC simulation time: CPU = 173 us, elapsed = 173.092 us.
...........9...........8...........7...........6...........5
DC simulation time: CPU = 127 us, elapsed = 127.077 us.
...........9...........8...........7...........6...........5...
DC simulation time: CPU = 202 us, elapsed = 199.795 us.
...........9...........8...........7...........6...........5.......
DC simulation time: CPU = 203 us, elapsed = 201.225 us.
...........9...........8...........7...........6...........5..........
DC simulation time: CPU = 212 us, elapsed = 211.954 us.
...........9...........8...........7...........6...........5...........4.
DC simulation time: CPU = 129 us, elapsed = 127.077 us.
...........9...........8...........7...........6...........5...........4.....
DC simulation time: CPU = 131 us, elapsed = 128.984 us.
...........9...........8...........7...........6...........5...........4........
DC simulation time: CPU = 108 us, elapsed = 106.812 us.
...........9...........8...........7...........6...........5...........4...........
DC simulation time: CPU = 86 us, elapsed = 85.1154 us.
...........9...........8...........7...........6...........5...........4...........3...
DC simulation time: CPU = 84 us, elapsed = 82.9697 us.
...........9...........8...........7...........6...........5...........4...........3......
DC simulation time: CPU = 102 us, elapsed = 99.8974 us.
...........9...........8...........7...........6...........5...........4...........3.........
DC simulation time: CPU = 108 us, elapsed = 105.858 us.
...........9...........8...........7...........6...........5...........4...........3...........2.
DC simulation time: CPU = 103 us, elapsed = 102.043 us.
...........9...........8...........7...........6...........5...........4...........3...........2....
DC simulation time: CPU = 97 us, elapsed = 96.0827 us.
...........9...........8...........7...........6...........5...........4...........3...........2.......
DC simulation time: CPU = 89 us, elapsed = 87.9765 us.
...........9...........8...........7...........6...........5...........4...........3...........2...........
DC simulation time: CPU = 97 us, elapsed = 96.0827 us.
...........9...........8...........7...........6...........5...........4...........3...........2...........1..
DC simulation time: CPU = 136 us, elapsed = 134.945 us.
...........9...........8...........7...........6...........5...........4...........3...........2...........1.....
DC simulation time: CPU = 132 us, elapsed = 129.223 us.
...........9...........8...........7...........6...........5...........4...........3...........2...........1.........
DC simulation time: CPU = 101 us, elapsed = 99.8974 us.
...........9...........8...........7...........6...........5...........4...........3...........2...........1...........0
Accumulated DC solution time =            0 s.
Intrinsic noise analysis time =              0 s.
Total time required for noise analysis `sweepvds_noise-034_sweepvgs_noise': CPU = 70.156 ms, elapsed = 445.452 ms.
Time accumulated: CPU = 5.31554 s, elapsed = 19.8449 s.
Peak resident memory used = 97.9 Mbytes.


++++++++++++++++++++++++++++++++++++++++
sweepvds_noise: ds = 875e-03 (97.2222 %)
++++++++++++++++++++++++++++++++++++++++
Time for sweepvds_noise itNum=35: CPU = 298 us, elapsed = 479.937 us.
Time accumulated: CPU = 5.31603 s, elapsed = 19.846 s.
Peak resident memory used = 97.9 Mbytes.


********************************************************************************
Noise Analysis `sweepvds_noise-035_sweepvgs_noise': freq = 1 Hz, gs = (0 -> 900e-03)
********************************************************************************

Notice from spectre during Noise analysis `sweepvds_noise-035_sweepvgs_noise', during Sweep analysis `sweepvds_noise'.
    No outputs were found. Loosening output filter criterion to `allpub'.

DC simulation time: CPU = 263 us, elapsed = 262.976 us.

Opening the PSF file ./techsweep.raw/sweepvds_noise-035_sweepvgs_noise.noise ...
DC simulation time: CPU = 87 us, elapsed = 87.0228 us.
...
DC simulation time: CPU = 67 us, elapsed = 65.0883 us.
.......
DC simulation time: CPU = 65 us, elapsed = 64.1346 us.
..........
DC simulation time: CPU = 65 us, elapsed = 63.8962 us.
...........9.
DC simulation time: CPU = 119 us, elapsed = 117.779 us.
...........9.....
DC simulation time: CPU = 154 us, elapsed = 153.065 us.
...........9........
DC simulation time: CPU = 68 us, elapsed = 66.9956 us.
...........9...........
DC simulation time: CPU = 69 us, elapsed = 67.9493 us.
...........9...........8...
DC simulation time: CPU = 71 us, elapsed = 69.8566 us.
...........9...........8......
DC simulation time: CPU = 67 us, elapsed = 66.0419 us.
...........9...........8.........
DC simulation time: CPU = 143 us, elapsed = 143.051 us.
...........9...........8...........7.
DC simulation time: CPU = 79 us, elapsed = 77.9629 us.
...........9...........8...........7....
DC simulation time: CPU = 93 us, elapsed = 91.7912 us.
...........9...........8...........7.......
DC simulation time: CPU = 78 us, elapsed = 77.0092 us.
...........9...........8...........7...........
DC simulation time: CPU = 75 us, elapsed = 75.1019 us.
...........9...........8...........7...........6..
DC simulation time: CPU = 75 us, elapsed = 75.8171 us.
...........9...........8...........7...........6.....
DC simulation time: CPU = 81 us, elapsed = 80.8239 us.
...........9...........8...........7...........6.........
DC simulation time: CPU = 90 us, elapsed = 90.1222 us.
...........9...........8...........7...........6...........5
DC simulation time: CPU = 144 us, elapsed = 144.005 us.
...........9...........8...........7...........6...........5...
DC simulation time: CPU = 185 us, elapsed = 182.867 us.
...........9...........8...........7...........6...........5.......
DC simulation time: CPU = 83 us, elapsed = 82.9697 us.
...........9...........8...........7...........6...........5..........
DC simulation time: CPU = 82 us, elapsed = 82.016 us.
...........9...........8...........7...........6...........5...........4.
DC simulation time: CPU = 82 us, elapsed = 81.0623 us.
...........9...........8...........7...........6...........5...........4.....
DC simulation time: CPU = 122 us, elapsed = 121.117 us.
...........9...........8...........7...........6...........5...........4........
DC simulation time: CPU = 84 us, elapsed = 82.9697 us.
...........9...........8...........7...........6...........5...........4...........
DC simulation time: CPU = 126 us, elapsed = 124.931 us.
...........9...........8...........7...........6...........5...........4...........3...
DC simulation time: CPU = 92 us, elapsed = 91.0759 us.
...........9...........8...........7...........6...........5...........4...........3......
DC simulation time: CPU = 189 us, elapsed = 187.874 us.
...........9...........8...........7...........6...........5...........4...........3.........
DC simulation time: CPU = 112 us, elapsed = 110.149 us.
...........9...........8...........7...........6...........5...........4...........3...........2.
DC simulation time: CPU = 139 us, elapsed = 138.044 us.
...........9...........8...........7...........6...........5...........4...........3...........2....
DC simulation time: CPU = 138 us, elapsed = 134.945 us.
...........9...........8...........7...........6...........5...........4...........3...........2.......
DC simulation time: CPU = 197 us, elapsed = 195.026 us.
...........9...........8...........7...........6...........5...........4...........3...........2...........
DC simulation time: CPU = 103 us, elapsed = 101.805 us.
...........9...........8...........7...........6...........5...........4...........3...........2...........1..
DC simulation time: CPU = 183 us, elapsed = 181.913 us.
...........9...........8...........7...........6...........5...........4...........3...........2...........1.....
DC simulation time: CPU = 112 us, elapsed = 111.103 us.
...........9...........8...........7...........6...........5...........4...........3...........2...........1.........
DC simulation time: CPU = 87 us, elapsed = 87.0228 us.
...........9...........8...........7...........6...........5...........4...........3...........2...........1...........0
Accumulated DC solution time =            0 s.
Intrinsic noise analysis time =              0 s.
Total time required for noise analysis `sweepvds_noise-035_sweepvgs_noise': CPU = 70.558 ms, elapsed = 441.815 ms.
Time accumulated: CPU = 5.38734 s, elapsed = 20.2908 s.
Peak resident memory used = 97.9 Mbytes.


++++++++++++++++++++++++++++++++++++
sweepvds_noise: ds = 900e-03 (100 %)
++++++++++++++++++++++++++++++++++++
Time for sweepvds_noise itNum=36: CPU = 217 us, elapsed = 390.053 us.
Time accumulated: CPU = 5.38768 s, elapsed = 20.2919 s.
Peak resident memory used = 97.9 Mbytes.


********************************************************************************
Noise Analysis `sweepvds_noise-036_sweepvgs_noise': freq = 1 Hz, gs = (0 -> 900e-03)
********************************************************************************

Notice from spectre during Noise analysis `sweepvds_noise-036_sweepvgs_noise', during Sweep analysis `sweepvds_noise'.
    No outputs were found. Loosening output filter criterion to `allpub'.

DC simulation time: CPU = 232 us, elapsed = 232.935 us.

Opening the PSF file ./techsweep.raw/sweepvds_noise-036_sweepvgs_noise.noise ...
DC simulation time: CPU = 126 us, elapsed = 124.931 us.
...
DC simulation time: CPU = 96 us, elapsed = 96.0827 us.
.......
DC simulation time: CPU = 65 us, elapsed = 65.0883 us.
..........
DC simulation time: CPU = 64 us, elapsed = 64.1346 us.
...........9.
DC simulation time: CPU = 64 us, elapsed = 63.8962 us.
...........9.....
DC simulation time: CPU = 111 us, elapsed = 109.911 us.
...........9........
DC simulation time: CPU = 123 us, elapsed = 122.07 us.
...........9...........
DC simulation time: CPU = 81 us, elapsed = 79.8702 us.
...........9...........8...
DC simulation time: CPU = 68 us, elapsed = 66.9956 us.
...........9...........8......
DC simulation time: CPU = 252 us, elapsed = 252.008 us.
...........9...........8.........
DC simulation time: CPU = 91 us, elapsed = 91.0759 us.
...........9...........8...........7.
DC simulation time: CPU = 127 us, elapsed = 126.123 us.
...........9...........8...........7....
DC simulation time: CPU = 98 us, elapsed = 96.7979 us.
...........9...........8...........7.......
DC simulation time: CPU = 83 us, elapsed = 82.016 us.
...........9...........8...........7...........
DC simulation time: CPU = 95 us, elapsed = 94.1753 us.
...........9...........8...........7...........6..
DC simulation time: CPU = 156 us, elapsed = 154.972 us.
...........9...........8...........7...........6.....
DC simulation time: CPU = 181 us, elapsed = 180.006 us.
...........9...........8...........7...........6.........
DC simulation time: CPU = 95 us, elapsed = 93.9369 us.
...........9...........8...........7...........6...........5
DC simulation time: CPU = 199 us, elapsed = 198.126 us.
...........9...........8...........7...........6...........5...
DC simulation time: CPU = 135 us, elapsed = 132.799 us.
...........9...........8...........7...........6...........5.......
DC simulation time: CPU = 101 us, elapsed = 100.136 us.
...........9...........8...........7...........6...........5..........
DC simulation time: CPU = 91 us, elapsed = 90.1222 us.
...........9...........8...........7...........6...........5...........4.
DC simulation time: CPU = 114 us, elapsed = 113.01 us.
...........9...........8...........7...........6...........5...........4.....
DC simulation time: CPU = 127 us, elapsed = 124.931 us.
...........9...........8...........7...........6...........5...........4........
DC simulation time: CPU = 137 us, elapsed = 135.899 us.
...........9...........8...........7...........6...........5...........4...........
DC simulation time: CPU = 138 us, elapsed = 137.091 us.
...........9...........8...........7...........6...........5...........4...........3...
DC simulation time: CPU = 135 us, elapsed = 133.991 us.
...........9...........8...........7...........6...........5...........4...........3......
DC simulation time: CPU = 128 us, elapsed = 125.885 us.
...........9...........8...........7...........6...........5...........4...........3.........
DC simulation time: CPU = 141 us, elapsed = 140.19 us.
...........9...........8...........7...........6...........5...........4...........3...........2.
DC simulation time: CPU = 131 us, elapsed = 129.938 us.
...........9...........8...........7...........6...........5...........4...........3...........2....
DC simulation time: CPU = 165 us, elapsed = 164.986 us.
...........9...........8...........7...........6...........5...........4...........3...........2.......
DC simulation time: CPU = 87 us, elapsed = 87.0228 us.
...........9...........8...........7...........6...........5...........4...........3...........2...........
DC simulation time: CPU = 117 us, elapsed = 114.918 us.
...........9...........8...........7...........6...........5...........4...........3...........2...........1..
DC simulation time: CPU = 132 us, elapsed = 130.892 us.
...........9...........8...........7...........6...........5...........4...........3...........2...........1.....
DC simulation time: CPU = 102 us, elapsed = 101.089 us.
...........9...........8...........7...........6...........5...........4...........3...........2...........1.........
DC simulation time: CPU = 177 us, elapsed = 175.953 us.
...........9...........8...........7...........6...........5...........4...........3...........2...........1...........0
Accumulated DC solution time =            0 s.
Intrinsic noise analysis time =              0 s.
Total time required for noise analysis `sweepvds_noise-036_sweepvgs_noise': CPU = 73.538 ms, elapsed = 479.574 ms.
Time accumulated: CPU = 5.46199 s, elapsed = 20.7739 s.
Peak resident memory used = 97.9 Mbytes.

Total time required for sweep analysis `sweepvds_noise': CPU = 3.80962 s, elapsed = 17.6919 s.
Time accumulated: CPU = 5.46248 s, elapsed = 20.7758 s.
Peak resident memory used = 97.9 Mbytes.

Licensing Information:
Lic Summary:
[18:00:31.001336] cdslmd servers: /export/SoftWare/Cadence/license/license.dat
[18:00:31.016488] Feature usage summary:
[18:00:31.460719]   Virtuoso_Spectre  


Aggregate audit (6:00:31 PM, Sat Mar 2, 2024):
Time used: CPU = 5.47 s, elapsed = 21.1 s, util. = 25.9%.
Time spent in licensing: elapsed = 69.4 ms.
Peak memory used = 98.4 Mbytes.
Simulation started at: 6:00:10 PM, Sat Mar 2, 2024, ended at: 6:00:31 PM, Sat Mar 2, 2024, with elapsed time (wall clock): 21.1 s.
spectre completes with 0 errors, 0 warnings, and 112 notices.
